* NGSPICE file created from comp_SAR_final.ext - technology: (null)

.subckt comp_SAR_final Vdd Vss Clk Vin1 Vin2 Comp_out Reset SAR_in Clk_piso Load Piso_out
X0 Vdd.t89 adc_PISO_0.B4.t4 SARlogic_0.dffrs_7.nand3_8.C.t2 Vdd.t88 pfet_03v3
**devattr s=26000,604 d=26000,604
X1 a_5803_9634 SARlogic_0.dffrs_4.d.t4 Vss.t16 Vss.t15 nfet_03v3
**devattr s=17600,576 d=10400,304
X2 adc_PISO_0.dffrs_4.Qb Vdd.t600 Vdd.t602 Vdd.t601 pfet_03v3
**devattr s=26000,604 d=44000,1176
X3 SARlogic_0.dffrs_12.nand3_1.C SARlogic_0.dffrs_12.nand3_6.C.t4 Vdd.t866 Vdd.t865 pfet_03v3
**devattr s=26000,604 d=44000,1176
X4 a_37687_30440 inv2_0.out.t2 a_37499_31160.t1 Vss.t231 nfet_03v3
**devattr s=17600,576 d=10400,304
X5 a_n7937_n2793 a_n8017_n2885 a_n9429_n2007.t10 Vss.t201 nfet_03v3
**devattr s=8320,264 d=14080,496
X6 a_28027_28820.t2 adc_PISO_0.B2.t4 Vdd.t772 Vdd.t771 pfet_03v3
**devattr s=52800,1376 d=52800,1376
X7 Vss.t173 a_8377_29020 a_9271_28100 Vss.t172 nfet_03v3
**devattr s=10400,304 d=17600,576
X8 Vdd.t393 Reset.t0 SARlogic_0.dffrs_14.nand3_6.C.t3 Vdd.t392 pfet_03v3
**devattr s=26000,604 d=26000,604
X9 a_n7809_21417 SARlogic_0.dffrs_14.nand3_1.C Vss.t324 Vss.t323 nfet_03v3
**devattr s=17600,576 d=10400,304
X10 SARlogic_0.dffrs_2.nand3_1.C.t0 SARlogic_0.dffrs_2.nand3_6.C.t4 a_459_14043 Vss.t316 nfet_03v3
**devattr s=10400,304 d=17600,576
X11 adc_PISO_0.B4.t3 SARlogic_0.dffrs_1.Qb.t4 Vdd.t271 Vdd.t270 pfet_03v3
**devattr s=44000,1176 d=26000,604
X12 SARlogic_0.dffrs_4.nand3_8.C.t0 SARlogic_0.dffrs_4.nand3_8.Z.t4 a_8543_9633 Vss.t514 nfet_03v3
**devattr s=10400,304 d=17600,576
X13 Vdd.t145 SARlogic_0.dffrs_1.nand3_8.C.t4 SARlogic_0.dffrs_1.Qb.t0 Vdd.t144 pfet_03v3
**devattr s=26000,604 d=26000,604
X14 adc_PISO_0.dffrs_0.Qb Vdd.t597 Vdd.t599 Vdd.t598 pfet_03v3
**devattr s=26000,604 d=44000,1176
X15 a_12401_7428 SARlogic_0.dffrs_5.nand3_8.C.t4 Vss.t46 Vss.t45 nfet_03v3
**devattr s=17600,576 d=10400,304
X16 SARlogic_0.dffrs_3.nand3_8.C.t1 SARlogic_0.dffrs_3.nand3_8.Z.t4 Vdd.t63 Vdd.t62 pfet_03v3
**devattr s=26000,604 d=44000,1176
X17 Vdd.t596 Vdd.t594 a_33257_31423.t2 Vdd.t595 pfet_03v3
**devattr s=26000,604 d=26000,604
X18 SARlogic_0.dffrs_5.nand3_8.C.t2 SARlogic_0.dffrs_5.nand3_6.C.t4 Vdd.t255 Vdd.t254 pfet_03v3
**devattr s=44000,1176 d=26000,604
X19 a_14071_9634 SARlogic_0.dffrs_5.nand3_8.C.t5 a_13887_9634 Vss.t47 nfet_03v3
**devattr s=10400,304 d=10400,304
X20 SARlogic_0.dffrs_1.Qb.t2 Reset.t1 Vdd.t862 Vdd.t861 pfet_03v3
**devattr s=26000,604 d=44000,1176
X21 a_18113_19210 SARlogic_0.dffrs_12.nand3_8.C.t4 a_17929_19210 Vss.t643 nfet_03v3
**devattr s=10400,304 d=10400,304
X22 Vdd.t686 comparator_no_offsetcal_0.lvsclean_SAlatch_0.Vout1.t9 comparator_no_offsetcal_0.lvsclean_SAlatch_0.Vout2.t7 Vdd.t685 pfet_03v3
**devattr s=10400,304 d=10400,304
X23 a_10029_9634 SARlogic_0.dffrs_4.nand3_8.C.t4 a_9845_9634 Vss.t479 nfet_03v3
**devattr s=10400,304 d=10400,304
X24 SARlogic_0.dffrs_1.nand3_6.C.t1 Clk.t0 a_n3583_11838 Vss.t509 nfet_03v3
**devattr s=10400,304 d=17600,576
X25 a_n4367_29309 Vdd.t943 a_n4551_29309 Vss.t458 nfet_03v3
**devattr s=10400,304 d=10400,304
X26 SARlogic_0.dffrs_9.Qb adc_PISO_0.B3.t4 Vdd.t924 Vdd.t923 pfet_03v3
**devattr s=44000,1176 d=26000,604
X27 a_4841_33627.t0 a_4841_31422.t4 Vdd.t307 Vdd.t306 pfet_03v3
**devattr s=26000,604 d=44000,1176
X28 Vdd.t918 adc_PISO_0.2inmux_1.Bit.t4 a_37499_31160.t3 Vdd.t917 pfet_03v3
**devattr s=52800,1376 d=52800,1376
X29 SARlogic_0.dffrs_5.nand3_6.C.t0 SARlogic_0.dffrs_5.nand3_1.C.t4 Vdd.t189 Vdd.t188 pfet_03v3
**devattr s=44000,1176 d=26000,604
X30 SARlogic_0.dffrs_4.d.t2 Vdd.t591 Vdd.t593 Vdd.t592 pfet_03v3
**devattr s=44000,1176 d=26000,604
X31 SARlogic_0.dffrs_3.nand3_6.C.t2 Clk.t1 Vdd.t702 Vdd.t701 pfet_03v3
**devattr s=26000,604 d=44000,1176
X32 Vdd.t864 Reset.t2 SARlogic_0.dffrs_10.nand3_8.Z Vdd.t863 pfet_03v3
**devattr s=26000,604 d=26000,604
X33 Vdd.t886 a_33337_30170.t4 a_33257_33628.t0 Vdd.t885 pfet_03v3
**devattr s=26000,604 d=26000,604
X34 SARlogic_0.dffrs_13.Qb.t0 SARlogic_0.dffrs_0.d.t4 Vdd.t179 Vdd.t178 pfet_03v3
**devattr s=44000,1176 d=26000,604
X35 Vdd.t301 a_n10831_4320 Comp_out.t7 Vdd.t300 pfet_03v3
**devattr s=18700,450 d=18700,450
X36 a_10639_28100 a_9083_28820.t4 Vdd.t896 Vdd.t895 pfet_03v3
**devattr s=52800,1376 d=52800,1376
X37 a_5987_21414 SARlogic_0.dffrs_9.nand3_6.C.t4 a_5803_21414 Vss.t644 nfet_03v3
**devattr s=10400,304 d=10400,304
X38 a_275_7428 SARlogic_0.dffrs_2.nand3_8.C.t4 Vss.t175 Vss.t174 nfet_03v3
**devattr s=17600,576 d=10400,304
X39 adc_PISO_0.2inmux_5.OUT.t0 a_30255_29264.t4 Vss.t184 Vss.t183 nfet_03v3
**devattr s=17600,576 d=17600,576
X40 SARlogic_0.dffrs_10.nand3_6.C.t2 adc_PISO_0.B1.t4 Vdd.t796 Vdd.t795 pfet_03v3
**devattr s=26000,604 d=44000,1176
X41 adc_PISO_0.B2.t1 SARlogic_0.dffrs_3.Qb.t4 Vdd.t211 Vdd.t210 pfet_03v3
**devattr s=44000,1176 d=26000,604
X42 a_12585_21414 Reset.t3 a_12401_21414 Vss.t616 nfet_03v3
**devattr s=10400,304 d=10400,304
X43 SARlogic_0.dffrs_3.Qb.t2 Reset.t4 a_5987_9634 Vss.t609 nfet_03v3
**devattr s=10400,304 d=17600,576
X44 SARlogic_0.dffrs_12.nand3_6.C.t0 SARlogic_0.dffrs_12.nand3_1.C Vdd.t47 Vdd.t46 pfet_03v3
**devattr s=44000,1176 d=26000,604
X45 SARlogic_0.dffrs_1.Qb.t3 Reset.t5 a_n2097_9634 Vss.t610 nfet_03v3
**devattr s=10400,304 d=17600,576
X46 a_n11637_11838 Vdd.t944 a_n11821_11838 Vss.t457 nfet_03v3
**devattr s=10400,304 d=10400,304
X47 a_n4551_35924 Vdd.t945 Vss.t456 Vss.t455 nfet_03v3
**devattr s=17600,576 d=10400,304
X48 SARlogic_0.dffrs_4.nand3_8.Z.t2 SARlogic_0.dffrs_4.nand3_8.C.t5 Vdd.t638 Vdd.t637 pfet_03v3
**devattr s=44000,1176 d=26000,604
X49 a_1761_19210 adc_PISO_0.B4.t5 Vss.t74 Vss.t73 nfet_03v3
**devattr s=17600,576 d=10400,304
X50 a_14393_33720 a_14313_33628.t4 Vss.t243 Vss.t242 nfet_03v3
**devattr s=17600,576 d=10400,304
X51 a_9271_28100 adc_PISO_0.B4.t6 a_9083_28820.t1 Vss.t72 nfet_03v3
**devattr s=17600,576 d=10400,304
X52 SARlogic_0.dffrs_10.nand3_1.C SARlogic_0.dffrs_10.nand3_6.C.t4 Vdd.t371 Vdd.t370 pfet_03v3
**devattr s=26000,604 d=44000,1176
X53 SARlogic_0.dffrs_12.nand3_1.C SARlogic_0.dffrs_5.Qb.t4 Vdd.t103 Vdd.t102 pfet_03v3
**devattr s=44000,1176 d=26000,604
X54 a_12585_23619 SARlogic_0.dffrs_11.nand3_8.Z a_12401_23619 Vss.t152 nfet_03v3
**devattr s=10400,304 d=10400,304
X55 adc_PISO_0.dffrs_1.Qb adc_PISO_0.dffrs_1.Q.t4 Vdd.t107 Vdd.t106 pfet_03v3
**devattr s=44000,1176 d=26000,604
X56 Vdd.t774 SARlogic_0.dffrs_14.nand3_6.C.t4 adc_PISO_0.B6.t0 Vdd.t773 pfet_03v3
**devattr s=26000,604 d=26000,604
X57 a_275_14043 Vdd.t946 Vss.t454 Vss.t453 nfet_03v3
**devattr s=17600,576 d=10400,304
X58 a_33257_29218.t0 a_33337_30170.t5 a_33521_31515 Vss.t624 nfet_03v3
**devattr s=10400,304 d=17600,576
X59 SARlogic_0.dffrs_0.Qb.t3 Reset.t6 a_n6139_9634 Vss.t611 nfet_03v3
**devattr s=10400,304 d=17600,576
X60 a_14393_35925 Vdd.t947 Vss.t452 Vss.t451 nfet_03v3
**devattr s=17600,576 d=10400,304
X61 SARlogic_0.dffrs_3.nand3_8.C.t3 SARlogic_0.dffrs_3.nand3_6.C.t4 Vdd.t694 Vdd.t693 pfet_03v3
**devattr s=44000,1176 d=26000,604
X62 a_9083_31160.t2 inv2_0.out.t3 a_9271_30440 Vss.t232 nfet_03v3
**devattr s=10400,304 d=17600,576
X63 a_23865_30170.t0 a_23785_29218.t4 Vdd.t99 Vdd.t98 pfet_03v3
**devattr s=44000,1176 d=26000,604
X64 a_18743_28100 a_17849_29020 Vss.t67 Vss.t66 nfet_03v3
**devattr s=17600,576 d=10400,304
X65 a_9845_19210 adc_PISO_0.B2.t5 Vss.t531 Vss.t530 nfet_03v3
**devattr s=17600,576 d=10400,304
X66 SARlogic_0.dffrs_3.nand3_6.C.t0 SARlogic_0.dffrs_3.nand3_1.C.t4 Vdd.t41 Vdd.t40 pfet_03v3
**devattr s=44000,1176 d=26000,604
X67 a_42729_31423.t1 a_42729_33628.t4 Vdd.t830 Vdd.t829 pfet_03v3
**devattr s=44000,1176 d=26000,604
X68 a_29583_30440 a_28027_31160.t4 Vdd.t91 Vdd.t90 pfet_03v3
**devattr s=52800,1376 d=52800,1376
X69 SARlogic_0.dffrs_13.Qb.t2 Vdd.t588 Vdd.t590 Vdd.t589 pfet_03v3
**devattr s=26000,604 d=44000,1176
X70 a_23785_29218.t2 a_23785_31423.t4 Vdd.t932 Vdd.t931 pfet_03v3
**devattr s=44000,1176 d=26000,604
X71 Vdd.t157 a_20111_30440 a_20971_29984 Vdd.t156 pfet_03v3
**devattr s=31200,704 d=52800,1376
X72 a_n9429_n2007.t1 Vin1.t0 comparator_no_offsetcal_0.lvsclean_SAlatch_0.Vp.t12 Vss.t159 nfet_03v3
**devattr s=15600,404 d=15600,404
X73 a_28027_31160.t2 inv2_0.out.t4 a_28215_30440 Vss.t233 nfet_03v3
**devattr s=10400,304 d=17600,576
X74 SARlogic_0.dffrs_10.nand3_6.C.t0 SARlogic_0.dffrs_10.nand3_1.C Vdd.t291 Vdd.t290 pfet_03v3
**devattr s=44000,1176 d=26000,604
X75 a_42729_33628.t2 Vdd.t585 Vdd.t587 Vdd.t586 pfet_03v3
**devattr s=44000,1176 d=26000,604
X76 a_n4631_33627.t1 a_n4631_31422.t4 a_n4367_35924 Vss.t278 nfet_03v3
**devattr s=10400,304 d=17600,576
X77 a_12401_17004 SARlogic_0.dffrs_11.nand3_8.C.t4 Vss.t538 Vss.t537 nfet_03v3
**devattr s=17600,576 d=10400,304
X78 SARlogic_0.dffrs_9.nand3_8.Z SAR_in.t0 a_4501_17004 Vss.t247 nfet_03v3
**devattr s=10400,304 d=17600,576
X79 a_n8305_30439 a_n9861_31159.t4 Vdd.t225 Vdd.t224 pfet_03v3
**devattr s=52800,1376 d=52800,1376
X80 a_n6139_19213 SARlogic_0.dffrs_14.nand3_8.C.t4 a_n6323_19213 Vss.t542 nfet_03v3
**devattr s=10400,304 d=10400,304
X81 a_n201_28099 a_n1095_29019 Vss.t9 Vss.t8 nfet_03v3
**devattr s=17600,576 d=10400,304
X82 SARlogic_0.dffrs_10.nand3_1.C SARlogic_0.dffrs_3.Qb.t5 Vdd.t213 Vdd.t212 pfet_03v3
**devattr s=44000,1176 d=26000,604
X83 adc_PISO_0.B2.t3 SARlogic_0.dffrs_10.Qb Vdd.t435 Vdd.t434 pfet_03v3
**devattr s=26000,604 d=44000,1176
X84 Vdd.t584 Vdd.t582 SARlogic_0.dffrs_13.nand3_8.Z.t3 Vdd.t583 pfet_03v3
**devattr s=26000,604 d=26000,604
X85 SARlogic_0.dffrs_5.Qb.t3 Reset.t7 Vdd.t858 Vdd.t857 pfet_03v3
**devattr s=26000,604 d=44000,1176
X86 a_1167_30439 a_n389_31159.t4 Vdd.t381 Vdd.t380 pfet_03v3
**devattr s=52800,1376 d=52800,1376
X87 SARlogic_0.dffrs_9.nand3_8.C.t2 SARlogic_0.dffrs_9.nand3_8.Z a_4501_19209 Vss.t462 nfet_03v3
**devattr s=10400,304 d=17600,576
X88 SARlogic_0.dffrs_0.nand3_8.C.t0 SARlogic_0.dffrs_0.nand3_6.C.t4 Vdd.t419 Vdd.t418 pfet_03v3
**devattr s=44000,1176 d=26000,604
X89 a_12401_19209 SARlogic_0.dffrs_11.nand3_6.C.t4 Vss.t308 Vss.t307 nfet_03v3
**devattr s=17600,576 d=10400,304
X90 a_33337_31515 a_33257_31423.t4 Vss.t146 Vss.t145 nfet_03v3
**devattr s=17600,576 d=10400,304
X91 SARlogic_0.dffrs_14.nand3_1.C SARlogic_0.dffrs_13.Qb.t4 Vdd.t369 Vdd.t368 pfet_03v3
**devattr s=44000,1176 d=26000,604
X92 SARlogic_0.dffrs_3.nand3_8.C.t0 SARlogic_0.dffrs_3.nand3_8.Z.t5 a_4501_9633 Vss.t48 nfet_03v3
**devattr s=10400,304 d=17600,576
X93 a_10639_30440 a_9083_31160.t4 Vss.t78 Vss.t77 nfet_03v3
**devattr s=17600,576 d=17600,576
X94 Vdd.t59 SARlogic_0.dffrs_5.nand3_8.C.t6 SARlogic_0.dffrs_5.Qb.t1 Vdd.t58 pfet_03v3
**devattr s=26000,604 d=26000,604
X95 Vss.t117 a_29583_30440 a_30255_29264.t3 Vss.t116 nfet_03v3
**devattr s=17600,576 d=17600,576
X96 Vss.t654 adc_PISO_0.2inmux_1.Bit.t5 a_37687_30440 Vss.t653 nfet_03v3
**devattr s=10400,304 d=17600,576
X97 SARlogic_0.dffrs_8.nand3_6.C.t2 adc_PISO_0.B3.t5 Vdd.t926 Vdd.t925 pfet_03v3
**devattr s=26000,604 d=44000,1176
X98 Vdd.t17 a_n1095_29019 a_n389_28819.t0 Vdd.t16 pfet_03v3
**devattr s=52800,1376 d=52800,1376
X99 Vss.t266 a_1167_30439 a_1839_29263.t3 Vss.t265 nfet_03v3
**devattr s=17600,576 d=17600,576
X100 a_5987_9634 SARlogic_0.dffrs_3.nand3_8.C.t4 a_5803_9634 Vss.t142 nfet_03v3
**devattr s=10400,304 d=10400,304
X101 SARlogic_0.dffrs_0.nand3_6.C.t0 SARlogic_0.dffrs_0.nand3_1.C.t4 Vdd.t319 Vdd.t318 pfet_03v3
**devattr s=44000,1176 d=26000,604
X102 SARlogic_0.dffrs_5.nand3_1.C.t3 Vdd.t579 Vdd.t581 Vdd.t580 pfet_03v3
**devattr s=44000,1176 d=26000,604
X103 SARlogic_0.dffrs_3.nand3_1.C.t2 SARlogic_0.dffrs_3.nand3_6.C.t5 Vdd.t832 Vdd.t831 pfet_03v3
**devattr s=26000,604 d=44000,1176
X104 a_20971_29984 a_20111_28100 a_20783_29264.t2 Vdd.t289 pfet_03v3
**devattr s=52800,1376 d=31200,704
X105 a_n3065_31515 adc_PISO_0.2inmux_2.Bit.t4 Vss.t18 Vss.t17 nfet_03v3
**devattr s=17600,576 d=10400,304
X106 SARlogic_0.dffrs_12.Q.t2 SARlogic_0.dffrs_12.Qb Vdd.t159 Vdd.t158 pfet_03v3
**devattr s=26000,604 d=44000,1176
X107 SARlogic_0.dffrs_12.nand3_8.Z Vss.t677 Vdd.t762 Vdd.t761 pfet_03v3
**devattr s=26000,604 d=44000,1176
X108 a_4921_30169.t1 adc_PISO_0.2inmux_2.OUT.t2 a_5105_29309 Vss.t97 nfet_03v3
**devattr s=10400,304 d=17600,576
X109 Vdd.t802 a_27321_29020 a_28027_28820.t3 Vdd.t801 pfet_03v3
**devattr s=52800,1376 d=52800,1376
X110 SARlogic_0.dffrs_8.nand3_1.C SARlogic_0.dffrs_8.nand3_6.C.t4 Vdd.t219 Vdd.t218 pfet_03v3
**devattr s=26000,604 d=44000,1176
X111 a_n2881_31515 a_n4631_29217.t4 a_n3065_31515 Vss.t623 nfet_03v3
**devattr s=10400,304 d=10400,304
X112 a_12585_7428 Reset.t8 a_12401_7428 Vss.t612 nfet_03v3
**devattr s=10400,304 d=10400,304
X113 SARlogic_0.dffrs_10.Qb Reset.t9 a_10029_19210 Vss.t613 nfet_03v3
**devattr s=10400,304 d=17600,576
X114 a_17849_29020 inv2_0.out.t5 Vdd.t131 Vdd.t130 pfet_03v3
**devattr s=52800,1376 d=52800,1376
X115 SARlogic_0.dffrs_3.nand3_8.Z.t0 SARlogic_0.dffrs_3.nand3_8.C.t5 Vdd.t161 Vdd.t160 pfet_03v3
**devattr s=44000,1176 d=26000,604
X116 a_4317_17004 SARlogic_0.dffrs_9.nand3_8.C.t4 Vss.t190 Vss.t189 nfet_03v3
**devattr s=17600,576 d=10400,304
X117 Vdd.t860 Reset.t10 SARlogic_0.dffrs_14.nand3_8.Z Vdd.t859 pfet_03v3
**devattr s=26000,604 d=26000,604
X118 SARlogic_0.dffrs_7.nand3_8.C.t3 SARlogic_0.dffrs_7.nand3_6.C.t4 Vdd.t149 Vdd.t148 pfet_03v3
**devattr s=44000,1176 d=26000,604
X119 adc_PISO_0.B4.t0 SARlogic_0.dffrs_8.Qb Vdd.t77 Vdd.t76 pfet_03v3
**devattr s=26000,604 d=44000,1176
X120 Vdd.t315 comparator_no_offsetcal_0.lvsclean_SAlatch_0.Vout2.t9 comparator_no_offsetcal_0.lvsclean_SAlatch_0.Vout1.t6 Vdd.t314 pfet_03v3
**devattr s=10400,304 d=10400,304
X121 a_14393_30170.t0 adc_PISO_0.2inmux_3.OUT.t2 Vdd.t451 Vdd.t450 pfet_03v3
**devattr s=26000,604 d=44000,1176
X122 Vdd.t221 SARlogic_0.dffrs_8.nand3_6.C.t5 adc_PISO_0.B4.t2 Vdd.t220 pfet_03v3
**devattr s=26000,604 d=26000,604
X123 a_4317_19209 SARlogic_0.dffrs_9.nand3_6.C.t5 Vss.t634 Vss.t633 nfet_03v3
**devattr s=17600,576 d=10400,304
X124 a_459_7428 Reset.t11 a_275_7428 Vss.t614 nfet_03v3
**devattr s=10400,304 d=10400,304
X125 a_n9429_n2007.t0 Vin2.t0 comparator_no_offsetcal_0.lvsclean_SAlatch_0.Vq Vss.t153 nfet_03v3
**devattr s=15600,404 d=15600,404
X126 Vdd.t704 Clk.t2 SARlogic_0.dffrs_5.nand3_8.C.t3 Vdd.t703 pfet_03v3
**devattr s=26000,604 d=26000,604
X127 a_33257_31423.t3 Clk_piso.t0 Vdd.t642 Vdd.t641 pfet_03v3
**devattr s=26000,604 d=44000,1176
X128 adc_PISO_0.2inmux_1.Bit.t1 Vdd.t576 Vdd.t578 Vdd.t577 pfet_03v3
**devattr s=44000,1176 d=26000,604
X129 SARlogic_0.dffrs_8.nand3_6.C.t0 SARlogic_0.dffrs_8.nand3_1.C Vdd.t51 Vdd.t50 pfet_03v3
**devattr s=44000,1176 d=26000,604
X130 SARlogic_0.dffrs_12.Qb Reset.t12 a_18113_19210 Vss.t615 nfet_03v3
**devattr s=10400,304 d=17600,576
X131 a_14313_29218.t2 a_14393_30170.t4 Vdd.t936 Vdd.t935 pfet_03v3
**devattr s=26000,604 d=44000,1176
X132 comparator_no_offsetcal_0.lvsclean_SAlatch_0.Vout2.t0 a_n7971_249 a_n8059_341 Vss.t227 nfet_03v3
**devattr s=35200,976 d=20800,504
X133 SARlogic_0.dffrs_3.nand3_1.C.t3 Vdd.t573 Vdd.t575 Vdd.t574 pfet_03v3
**devattr s=44000,1176 d=26000,604
X134 Vdd.t209 SARlogic_0.dffrs_9.nand3_8.C.t5 SARlogic_0.dffrs_9.Qb Vdd.t208 pfet_03v3
**devattr s=26000,604 d=26000,604
X135 SARlogic_0.dffrs_5.nand3_6.C.t2 Clk.t3 a_12585_11838 Vss.t510 nfet_03v3
**devattr s=10400,304 d=17600,576
X136 Vdd.t804 Reset.t13 SARlogic_0.dffrs_5.nand3_6.C.t3 Vdd.t803 pfet_03v3
**devattr s=26000,604 d=26000,604
X137 Vdd.t834 SARlogic_0.dffrs_3.nand3_6.C.t6 SARlogic_0.dffrs_4.d.t3 Vdd.t833 pfet_03v3
**devattr s=26000,604 d=26000,604
X138 SARlogic_0.dffrs_12.nand3_8.Z SARlogic_0.dffrs_12.nand3_8.C.t5 Vdd.t884 Vdd.t883 pfet_03v3
**devattr s=44000,1176 d=26000,604
X139 SARlogic_0.dffrs_10.nand3_8.Z SAR_in.t1 Vdd.t275 Vdd.t274 pfet_03v3
**devattr s=26000,604 d=44000,1176
X140 a_33257_33628.t1 a_33257_31423.t5 Vdd.t237 Vdd.t236 pfet_03v3
**devattr s=26000,604 d=44000,1176
X141 a_6591_31515 a_4841_29217.t4 a_6407_31515 Vss.t486 nfet_03v3
**devattr s=10400,304 d=10400,304
X142 SARlogic_0.dffrs_8.nand3_1.C SARlogic_0.dffrs_1.Qb.t5 Vdd.t273 Vdd.t272 pfet_03v3
**devattr s=44000,1176 d=26000,604
X143 SARlogic_0.dffrs_14.nand3_6.C.t0 adc_PISO_0.B5.t4 a_n7625_21417 Vss.t298 nfet_03v3
**devattr s=10400,304 d=17600,576
X144 a_n6323_21417 SARlogic_0.dffrs_13.Qb.t5 Vss.t306 Vss.t305 nfet_03v3
**devattr s=17600,576 d=10400,304
X145 a_13887_21414 SARlogic_0.dffrs_4.Qb.t4 Vss.t193 Vss.t192 nfet_03v3
**devattr s=17600,576 d=10400,304
X146 Vdd.t199 SARlogic_0.dffrs_10.nand3_6.C.t5 adc_PISO_0.B2.t0 Vdd.t198 pfet_03v3
**devattr s=26000,604 d=26000,604
X147 Vdd.t806 Reset.t14 SARlogic_0.dffrs_12.nand3_6.C.t3 Vdd.t805 pfet_03v3
**devattr s=26000,604 d=26000,604
X148 comparator_no_offsetcal_0.lvsclean_SAlatch_0.Vq Vin2.t1 a_n9429_n2007.t7 Vss.t160 nfet_03v3
**devattr s=15600,404 d=15600,404
X149 a_n3583_9633 Clk.t4 a_n3767_9633 Vss.t511 nfet_03v3
**devattr s=10400,304 d=10400,304
X150 a_n6139_9634 SARlogic_0.dffrs_0.nand3_8.C.t4 a_n6323_9634 Vss.t217 nfet_03v3
**devattr s=10400,304 d=10400,304
X151 SARlogic_0.dffrs_8.Qb Reset.t15 a_1945_19210 Vss.t560 nfet_03v3
**devattr s=10400,304 d=17600,576
X152 a_44295_33720 Vdd.t948 Vss.t450 Vss.t449 nfet_03v3
**devattr s=17600,576 d=10400,304
X153 a_n7445_29983 a_n8305_30439 Vdd.t55 Vdd.t54 pfet_03v3
**devattr s=52800,1376 d=31200,704
X154 a_23785_29218.t3 a_23865_30170.t4 a_24049_31515 Vss.t668 nfet_03v3
**devattr s=10400,304 d=17600,576
X155 a_1945_19210 SARlogic_0.dffrs_8.nand3_8.C.t4 a_1761_19210 Vss.t275 nfet_03v3
**devattr s=10400,304 d=10400,304
X156 a_5105_35924 a_4921_30169.t4 a_4921_35924 Vss.t572 nfet_03v3
**devattr s=10400,304 d=10400,304
X157 a_n201_30439 adc_PISO_0.2inmux_2.Bit.t5 Vss.t20 Vss.t19 nfet_03v3
**devattr s=17600,576 d=10400,304
X158 Vdd.t23 SARlogic_0.dffrs_12.nand3_8.Z SARlogic_0.dffrs_12.nand3_1.C Vdd.t22 pfet_03v3
**devattr s=26000,604 d=26000,604
X159 SARlogic_0.dffrs_7.nand3_8.C.t0 SARlogic_0.dffrs_7.nand3_8.Z Vdd.t73 Vdd.t72 pfet_03v3
**devattr s=26000,604 d=44000,1176
X160 a_4501_11838 Reset.t16 a_4317_11838 Vss.t561 nfet_03v3
**devattr s=10400,304 d=10400,304
X161 a_42993_33720 Vdd.t949 a_42809_33720 Vss.t448 nfet_03v3
**devattr s=10400,304 d=10400,304
X162 a_4921_35924 Vdd.t950 Vss.t447 Vss.t446 nfet_03v3
**devattr s=17600,576 d=10400,304
X163 adc_PISO_0.dffrs_4.Qb adc_PISO_0.2inmux_1.Bit.t6 Vdd.t920 Vdd.t919 pfet_03v3
**devattr s=44000,1176 d=26000,604
X164 a_459_14043 SARlogic_0.dffrs_2.nand3_8.Z.t4 a_275_14043 Vss.t375 nfet_03v3
**devattr s=10400,304 d=10400,304
X165 a_28215_30440 adc_PISO_0.dffrs_3.Q.t4 Vss.t475 Vss.t474 nfet_03v3
**devattr s=17600,576 d=10400,304
X166 a_39727_29264.t2 a_39055_28100 a_39915_29984 Vdd.t261 pfet_03v3
**devattr s=31200,704 d=52800,1376
X167 a_8543_21414 Reset.t17 a_8359_21414 Vss.t562 nfet_03v3
**devattr s=10400,304 d=10400,304
X168 a_n7809_9633 SARlogic_0.dffrs_0.nand3_6.C.t5 Vss.t349 Vss.t348 nfet_03v3
**devattr s=17600,576 d=10400,304
X169 comparator_no_offsetcal_0.lvsclean_SAlatch_0.Vq a_n9933_n2099 a_n10021_n2007 Vss.t228 nfet_03v3
**devattr s=26400,776 d=15600,404
X170 SARlogic_0.dffrs_0.nand3_1.C.t2 Vdd.t570 Vdd.t572 Vdd.t571 pfet_03v3
**devattr s=44000,1176 d=26000,604
X171 a_n7809_17007 SARlogic_0.dffrs_14.nand3_8.C.t5 Vss.t544 Vss.t543 nfet_03v3
**devattr s=17600,576 d=10400,304
X172 a_42993_35925 a_42809_30170.t4 a_42809_35925 Vss.t585 nfet_03v3
**devattr s=10400,304 d=10400,304
X173 a_33257_31423.t0 a_33257_33628.t4 Vdd.t217 Vdd.t216 pfet_03v3
**devattr s=44000,1176 d=26000,604
X174 a_28215_28100 adc_PISO_0.B2.t6 a_28027_28820.t1 Vss.t532 nfet_03v3
**devattr s=17600,576 d=10400,304
X175 Vdd.t569 Vdd.t567 a_23865_30170.t3 Vdd.t568 pfet_03v3
**devattr s=26000,604 d=26000,604
X176 a_8543_23619 SARlogic_0.dffrs_10.nand3_8.Z a_8359_23619 Vss.t221 nfet_03v3
**devattr s=10400,304 d=10400,304
X177 a_10029_19210 SARlogic_0.dffrs_10.nand3_8.C.t4 a_9845_19210 Vss.t600 nfet_03v3
**devattr s=10400,304 d=10400,304
X178 SARlogic_0.dffrs_10.nand3_8.Z SARlogic_0.dffrs_10.nand3_8.C.t5 Vdd.t850 Vdd.t849 pfet_03v3
**devattr s=44000,1176 d=26000,604
X179 a_33257_33628.t3 Vdd.t564 Vdd.t566 Vdd.t565 pfet_03v3
**devattr s=44000,1176 d=26000,604
X180 Vdd.t644 Clk_piso.t1 a_23785_29218.t1 Vdd.t643 pfet_03v3
**devattr s=26000,604 d=26000,604
X181 adc_PISO_0.B6.t3 SARlogic_0.dffrs_14.Qb a_n6139_21417 Vss.t248 nfet_03v3
**devattr s=10400,304 d=17600,576
X182 a_44295_31516 Piso_out.t4 Vss.t369 Vss.t368 nfet_03v3
**devattr s=17600,576 d=10400,304
X183 a_n4367_35924 a_n4551_30169.t4 a_n4551_35924 Vss.t330 nfet_03v3
**devattr s=10400,304 d=10400,304
X184 a_n4551_30169.t0 a_n4631_29217.t5 Vdd.t874 Vdd.t873 pfet_03v3
**devattr s=44000,1176 d=26000,604
X185 a_12585_17004 Reset.t18 a_12401_17004 Vss.t563 nfet_03v3
**devattr s=10400,304 d=10400,304
X186 a_8377_29020 inv2_0.out.t6 Vss.t110 Vss.t109 nfet_03v3
**devattr s=17600,576 d=17600,576
X187 SARlogic_0.dffrs_0.nand3_8.Z.t1 SARlogic_0.dffrs_0.d.t5 Vdd.t181 Vdd.t180 pfet_03v3
**devattr s=26000,604 d=44000,1176
X188 a_14393_29310 a_14313_29218.t4 Vss.t568 Vss.t567 nfet_03v3
**devattr s=17600,576 d=10400,304
X189 SARlogic_0.dffrs_8.nand3_8.Z SAR_in.t2 Vdd.t277 Vdd.t276 pfet_03v3
**devattr s=26000,604 d=44000,1176
X190 a_12585_19209 SARlogic_0.dffrs_12.Q.t4 a_12401_19209 Vss.t336 nfet_03v3
**devattr s=10400,304 d=10400,304
X191 a_39727_29264.t0 a_39055_28100 Vss.t230 Vss.t229 nfet_03v3
**devattr s=17600,576 d=17600,576
X192 a_11499_29984 a_10639_28100 a_11311_29264.t1 Vdd.t153 pfet_03v3
**devattr s=52800,1376 d=31200,704
X193 a_n6555_341 a_n6755_249 comparator_no_offsetcal_0.lvsclean_SAlatch_0.Vq Vss.t96 nfet_03v3
**devattr s=20800,504 d=35200,976
X194 Vdd.t3 SARlogic_0.dffrs_5.nand3_8.Z.t4 SARlogic_0.dffrs_5.nand3_1.C.t0 Vdd.t2 pfet_03v3
**devattr s=26000,604 d=26000,604
X195 a_n10151_9634 SARlogic_0.dffrs_13.nand3_8.C.t4 a_n10335_9634 Vss.t295 nfet_03v3
**devattr s=10400,304 d=10400,304
X196 adc_PISO_0.B3.t1 SARlogic_0.dffrs_9.Qb Vdd.t129 Vdd.t128 pfet_03v3
**devattr s=26000,604 d=44000,1176
X197 adc_PISO_0.2inmux_1.Bit.t3 adc_PISO_0.dffrs_4.Qb a_35007_33720 Vss.t670 nfet_03v3
**devattr s=10400,304 d=17600,576
X198 adc_PISO_0.2inmux_0.OUT.t1 a_n7633_29263.t4 Vdd.t403 Vdd.t402 pfet_03v3
**devattr s=52800,1376 d=52800,1376
X199 adc_PISO_0.B5.t0 SARlogic_0.dffrs_0.Qb.t4 Vdd.t43 Vdd.t42 pfet_03v3
**devattr s=44000,1176 d=26000,604
X200 SARlogic_0.dffrs_0.nand3_8.C.t3 SARlogic_0.dffrs_0.nand3_8.Z.t4 Vdd.t892 Vdd.t891 pfet_03v3
**devattr s=26000,604 d=44000,1176
X201 a_36793_29020 inv2_0.out.t7 Vdd.t133 Vdd.t132 pfet_03v3
**devattr s=52800,1376 d=52800,1376
X202 Vdd.t714 comparator_no_offsetcal_0.lvsclean_SAlatch_0.Vout1.t10 comparator_no_offsetcal_0.lvsclean_SAlatch_0.Vout2.t6 Vdd.t713 pfet_03v3
**devattr s=10400,304 d=10400,304
X203 SARlogic_0.dffrs_14.nand3_1.C SARlogic_0.dffrs_14.nand3_6.C.t5 Vdd.t776 Vdd.t775 pfet_03v3
**devattr s=26000,604 d=44000,1176
X204 SARlogic_0.dffrs_5.nand3_8.Z.t1 SARlogic_0.dffrs_4.Q.t4 Vdd.t439 Vdd.t438 pfet_03v3
**devattr s=26000,604 d=44000,1176
X205 a_n9429_n2007.t8 Vin2.t2 comparator_no_offsetcal_0.lvsclean_SAlatch_0.Vq Vss.t161 nfet_03v3
**devattr s=15600,404 d=15600,404
X206 SARlogic_0.dffrs_0.nand3_6.C.t1 Clk.t5 Vdd.t726 Vdd.t725 pfet_03v3
**devattr s=26000,604 d=44000,1176
X207 a_n4551_30169.t3 adc_PISO_0.2inmux_0.OUT.t2 Vdd.t614 Vdd.t613 pfet_03v3
**devattr s=26000,604 d=44000,1176
X208 SARlogic_0.dffrs_0.Q.t3 Vdd.t561 Vdd.t563 Vdd.t562 pfet_03v3
**devattr s=44000,1176 d=26000,604
X209 adc_PISO_0.dffrs_3.Q.t3 Vdd.t558 Vdd.t560 Vdd.t559 pfet_03v3
**devattr s=44000,1176 d=26000,604
X210 a_18555_28820.t3 adc_PISO_0.B3.t6 Vdd.t928 Vdd.t927 pfet_03v3
**devattr s=52800,1376 d=52800,1376
X211 a_18113_21414 SARlogic_0.dffrs_12.nand3_6.C.t5 a_17929_21414 Vss.t617 nfet_03v3
**devattr s=10400,304 d=10400,304
X212 a_23785_31423.t0 Clk_piso.t2 Vdd.t405 Vdd.t404 pfet_03v3
**devattr s=26000,604 d=44000,1176
X213 SARlogic_0.dffrs_13.nand3_8.Z.t0 Vss.t133 a_n11637_7428 Vss.t134 nfet_03v3
**devattr s=10400,304 d=17600,576
X214 comparator_no_offsetcal_0.x4.A comparator_no_offsetcal_0.x2.Vout2 Vdd.t67 Vdd.t66 pfet_03v3
**devattr s=17600,576 d=17600,576
X215 SARlogic_0.dffrs_8.nand3_8.Z SARlogic_0.dffrs_8.nand3_8.C.t5 Vdd.t323 Vdd.t322 pfet_03v3
**devattr s=44000,1176 d=26000,604
X216 comparator_no_offsetcal_0.x4.A comparator_no_offsetcal_0.x3.out Vss.t149 Vss.t148 nfet_03v3
**devattr s=17600,576 d=17600,576
X217 SARlogic_0.dffrs_12.nand3_6.C.t1 Vss.t131 a_16627_21414 Vss.t132 nfet_03v3
**devattr s=10400,304 d=17600,576
X218 a_n3767_9633 SARlogic_0.dffrs_1.nand3_6.C.t4 Vss.t595 Vss.t594 nfet_03v3
**devattr s=17600,576 d=10400,304
X219 Vdd.t239 a_33257_31423.t6 adc_PISO_0.2inmux_1.Bit.t0 Vdd.t238 pfet_03v3
**devattr s=26000,604 d=26000,604
X220 SARlogic_0.dffrs_9.Qb Reset.t19 a_5987_19210 Vss.t564 nfet_03v3
**devattr s=10400,304 d=17600,576
X221 a_23785_33628.t2 a_23785_31423.t5 Vdd.t191 Vdd.t190 pfet_03v3
**devattr s=26000,604 d=44000,1176
X222 Vdd.t808 Reset.t20 SARlogic_0.dffrs_8.nand3_6.C.t1 Vdd.t807 pfet_03v3
**devattr s=26000,604 d=26000,604
X223 SARlogic_0.dffrs_14.Qb adc_PISO_0.B6.t4 Vdd.t930 Vdd.t929 pfet_03v3
**devattr s=44000,1176 d=26000,604
X224 a_n2281_19210 adc_PISO_0.B5.t5 Vss.t300 Vss.t299 nfet_03v3
**devattr s=17600,576 d=10400,304
X225 a_n3583_14043 SARlogic_0.dffrs_1.nand3_8.Z.t4 a_n3767_14043 Vss.t329 nfet_03v3
**devattr s=10400,304 d=10400,304
X226 a_n7633_29263.t2 a_n8305_28099 a_n7445_29983 Vdd.t123 pfet_03v3
**devattr s=31200,704 d=52800,1376
X227 SARlogic_0.dffrs_2.nand3_8.Z.t1 SARlogic_0.dffrs_2.d.t4 Vdd.t455 Vdd.t454 pfet_03v3
**devattr s=26000,604 d=44000,1176
X228 SARlogic_0.dffrs_12.nand3_1.C SARlogic_0.dffrs_12.nand3_6.C.t6 a_16627_23619 Vss.t618 nfet_03v3
**devattr s=10400,304 d=17600,576
X229 SARlogic_0.dffrs_11.Qb adc_PISO_0.B1.t5 Vdd.t798 Vdd.t797 pfet_03v3
**devattr s=44000,1176 d=26000,604
X230 adc_PISO_0.dffrs_4.Qb Vdd.t951 a_35007_31516 Vss.t445 nfet_03v3
**devattr s=10400,304 d=17600,576
X231 SARlogic_0.dffrs_5.Q.t3 Vdd.t555 Vdd.t557 Vdd.t556 pfet_03v3
**devattr s=44000,1176 d=26000,604
X232 Vdd.t810 Reset.t21 SARlogic_0.dffrs_12.nand3_8.Z Vdd.t809 pfet_03v3
**devattr s=26000,604 d=26000,604
X233 a_n389_31159.t3 inv2_0.out.t8 Vdd.t135 Vdd.t134 pfet_03v3
**devattr s=52800,1376 d=52800,1376
X234 a_n7625_21417 Reset.t22 a_n7809_21417 Vss.t494 nfet_03v3
**devattr s=10400,304 d=10400,304
X235 Vdd.t7 SARlogic_0.dffrs_8.nand3_8.Z SARlogic_0.dffrs_8.nand3_1.C Vdd.t6 pfet_03v3
**devattr s=26000,604 d=26000,604
X236 adc_PISO_0.dffrs_0.Qb Vdd.t952 a_n2881_31515 Vss.t444 nfet_03v3
**devattr s=10400,304 d=17600,576
X237 a_1761_21414 SARlogic_0.dffrs_1.Qb.t6 Vss.t35 Vss.t34 nfet_03v3
**devattr s=17600,576 d=10400,304
X238 a_n10567_29019 inv2_0.out.t9 Vss.t112 Vss.t111 nfet_03v3
**devattr s=17600,576 d=17600,576
X239 a_n201_28099 adc_PISO_0.B5.t6 a_n389_28819.t1 Vss.t154 nfet_03v3
**devattr s=17600,576 d=10400,304
X240 SARlogic_0.dffrs_12.Q.t0 SARlogic_0.dffrs_5.Qb.t5 Vdd.t37 Vdd.t36 pfet_03v3
**devattr s=44000,1176 d=26000,604
X241 a_n11821_14043 Reset.t23 Vss.t496 Vss.t495 nfet_03v3
**devattr s=17600,576 d=10400,304
X242 a_33521_33720 Vdd.t953 a_33337_33720 Vss.t443 nfet_03v3
**devattr s=10400,304 d=10400,304
X243 Vdd.t728 Clk.t6 SARlogic_0.dffrs_4.nand3_8.C.t3 Vdd.t727 pfet_03v3
**devattr s=26000,604 d=26000,604
X244 SARlogic_0.dffrs_1.nand3_8.Z.t1 SARlogic_0.dffrs_0.Q.t4 Vdd.t465 Vdd.t464 pfet_03v3
**devattr s=26000,604 d=44000,1176
X245 SARlogic_0.dffrs_0.Q.t0 SARlogic_0.dffrs_0.Qb.t5 Vdd.t45 Vdd.t44 pfet_03v3
**devattr s=26000,604 d=44000,1176
X246 adc_PISO_0.dffrs_3.Qb adc_PISO_0.dffrs_3.Q.t5 Vdd.t656 Vdd.t655 pfet_03v3
**devattr s=44000,1176 d=26000,604
X247 a_30255_29264.t1 a_29583_28100 a_30443_29984 Vdd.t11 pfet_03v3
**devattr s=31200,704 d=52800,1376
X248 a_5803_11838 Vdd.t954 Vss.t442 Vss.t441 nfet_03v3
**devattr s=17600,576 d=10400,304
X249 a_4841_33627.t1 a_4841_31422.t5 a_5105_35924 Vss.t267 nfet_03v3
**devattr s=10400,304 d=17600,576
X250 a_1839_29263.t1 a_1167_28099 a_2027_29983 Vdd.t109 pfet_03v3
**devattr s=31200,704 d=52800,1376
X251 a_12401_11838 SARlogic_0.dffrs_5.nand3_1.C.t5 Vss.t304 Vss.t303 nfet_03v3
**devattr s=17600,576 d=10400,304
X252 SARlogic_0.dffrs_3.nand3_6.C.t1 Clk.t7 a_4501_11838 Vss.t522 nfet_03v3
**devattr s=10400,304 d=17600,576
X253 Vdd.t668 Reset.t24 SARlogic_0.dffrs_4.nand3_6.C.t2 Vdd.t667 pfet_03v3
**devattr s=26000,604 d=26000,604
X254 a_33521_35925 a_33337_30170.t6 a_33337_35925 Vss.t626 nfet_03v3
**devattr s=10400,304 d=10400,304
X255 a_42809_30170.t1 adc_PISO_0.2inmux_1.OUT.t2 Vdd.t427 Vdd.t426 pfet_03v3
**devattr s=26000,604 d=44000,1176
X256 inv2_0.out.t0 Load.t0 Vss.t351 Vss.t350 nfet_03v3
**devattr s=17600,576 d=17600,576
X257 Vdd.t554 Vdd.t552 a_14393_30170.t2 Vdd.t553 pfet_03v3
**devattr s=26000,604 d=26000,604
X258 Comp_out.t3 a_n10831_4320 Vss.t264 Vss.t263 nfet_03v3
**devattr s=17000,540 d=9350,280
X259 Vdd.t263 a_33257_29218.t4 adc_PISO_0.dffrs_4.Qb Vdd.t262 pfet_03v3
**devattr s=26000,604 d=26000,604
X260 SARlogic_0.dffrs_11.nand3_8.C.t1 SARlogic_0.dffrs_11.nand3_8.Z Vdd.t173 Vdd.t172 pfet_03v3
**devattr s=26000,604 d=44000,1176
X261 SARlogic_0.dffrs_10.nand3_6.C.t1 adc_PISO_0.B1.t6 a_8543_21414 Vss.t553 nfet_03v3
**devattr s=10400,304 d=17600,576
X262 a_9845_21414 SARlogic_0.dffrs_3.Qb.t6 Vss.t196 Vss.t195 nfet_03v3
**devattr s=17600,576 d=10400,304
X263 a_16443_21414 SARlogic_0.dffrs_12.nand3_1.C Vss.t33 Vss.t32 nfet_03v3
**devattr s=17600,576 d=10400,304
X264 a_42729_29218.t2 a_42809_30170.t5 Vdd.t836 Vdd.t835 pfet_03v3
**devattr s=26000,604 d=44000,1176
X265 a_8359_7428 SARlogic_0.dffrs_4.nand3_8.C.t6 Vss.t481 Vss.t480 nfet_03v3
**devattr s=17600,576 d=10400,304
X266 Vdd.t407 Clk_piso.t3 a_14313_29218.t0 Vdd.t406 pfet_03v3
**devattr s=26000,604 d=26000,604
X267 SARlogic_0.dffrs_14.Qb Reset.t25 Vdd.t670 Vdd.t669 pfet_03v3
**devattr s=26000,604 d=44000,1176
X268 inv2_0.out.t1 Load.t1 inv2_0.vdd inv2_0.vdd pfet_03v3
**devattr s=52800,1376 d=52800,1376
X269 SARlogic_0.dffrs_10.nand3_1.C SARlogic_0.dffrs_10.nand3_6.C.t6 a_8543_23619 Vss.t177 nfet_03v3
**devattr s=10400,304 d=17600,576
X270 a_16443_23619 SARlogic_0.dffrs_5.Qb.t6 Vss.t26 Vss.t25 nfet_03v3
**devattr s=17600,576 d=10400,304