* NGSPICE file created from adc_PISO.ext - technology: (null)

.subckt adc_PISO load B6 B5 B4 serial_out avdd B3 avss B2 B1 clk
X0 a_44488_8266 avdd.t378 avss.t100 avss.t99 nfet_03v3
**devattr s=17600,576 d=10400,304
X1 a_50206_2781 a_48650_3501.t4 avdd.t337 avdd.t336 pfet_03v3
**devattr s=52800,1376 d=52800,1376
X2 a_6600_2510.t2 a_6520_1558.t4 avdd.t51 avdd.t50 pfet_03v3
**devattr s=44000,1176 d=26000,604
X3 a_6520_1558.t2 a_6520_3763.t4 avdd.t329 avdd.t328 pfet_03v3
**devattr s=44000,1176 d=26000,604
X4 avdd.t43 dffrs_1.Q.t4 a_20234_3501.t1 avdd.t42 pfet_03v3
**devattr s=52800,1376 d=52800,1376
X5 avdd.t331 a_6520_3763.t5 2inmux_2.Bit.t2 avdd.t330 pfet_03v3
**devattr s=26000,604 d=26000,604
X6 a_2846_2780 a_1290_3500.t4 avdd.t189 avdd.t188 pfet_03v3
**devattr s=52800,1376 d=52800,1376
X7 dffrs_4.Qb avdd.t379 a_46158_3857 avss.t98 nfet_03v3
**devattr s=10400,304 d=17600,576
X8 a_15992_3763.t1 clk.t0 a_16256_6060 avss.t22 nfet_03v3
**devattr s=10400,304 d=17600,576
X9 2inmux_1.Bit.t2 dffrs_4.Qb a_46158_6061 avss.t255 nfet_03v3
**devattr s=10400,304 d=17600,576
X10 a_10950_2780 2inmux_2.Bit.t4 avss.t262 avss.t261 nfet_03v3
**devattr s=17600,576 d=10400,304
X11 a_15992_5968.t0 a_15992_3763.t4 a_16256_8265 avss.t225 nfet_03v3
**devattr s=10400,304 d=17600,576
X12 a_39178_3501.t1 load.t0 avdd.t169 avdd.t168 pfet_03v3
**devattr s=52800,1376 d=52800,1376
X13 avss.t45 dffrs_2.Q.t4 a_29894_2781 avss.t44 nfet_03v3
**devattr s=10400,304 d=17600,576
X14 a_50206_441 a_48650_1161.t4 avss.t218 avss.t217 nfet_03v3
**devattr s=17600,576 d=17600,576
X15 2inmux_1.OUT.t1 a_50878_1605.t4 avss.t285 avss.t284 nfet_03v3
**devattr s=17600,576 d=17600,576
X16 avdd.t53 a_6520_1558.t5 dffrs_0.Qb avdd.t52 pfet_03v3
**devattr s=26000,604 d=26000,604
X17 avss.t189 a_21790_2781 a_22462_1605.t0 avss.t188 nfet_03v3
**devattr s=17600,576 d=17600,576
X18 a_35016_1651 a_34936_1559.t4 avss.t142 avss.t141 nfet_03v3
**devattr s=17600,576 d=10400,304
X19 a_35016_3856 a_34936_3764.t4 avss.t268 avss.t267 nfet_03v3
**devattr s=17600,576 d=10400,304
X20 2inmux_0.OUT.t1 a_3518_1604.t4 avss.t283 avss.t282 nfet_03v3
**devattr s=17600,576 d=17600,576
X21 a_22462_1605.t2 a_21790_441 a_22650_2325 avdd.t373 pfet_03v3
**devattr s=31200,704 d=52800,1376
X22 a_29000_1361 load.t1 avdd.t69 avdd.t68 pfet_03v3
**devattr s=52800,1376 d=52800,1376
X23 avss.t266 a_47944_1361 a_48838_441 avss.t265 nfet_03v3
**devattr s=10400,304 d=17600,576
X24 avdd.t165 avdd.t163 a_44408_3764.t2 avdd.t164 pfet_03v3
**devattr s=26000,604 d=26000,604
X25 a_21790_441 a_20234_1161.t4 avdd.t237 avdd.t236 pfet_03v3
**devattr s=52800,1376 d=52800,1376
X26 a_1478_2780 load.t2 a_1290_3500.t0 avss.t54 nfet_03v3
**devattr s=17600,576 d=10400,304
X27 avdd.t17 a_29000_1361 a_29706_1161.t0 avdd.t16 pfet_03v3
**devattr s=52800,1376 d=52800,1376
X28 a_25464_3764.t0 clk.t1 avdd.t27 avdd.t26 pfet_03v3
**devattr s=26000,604 d=44000,1176
X29 avdd.t162 avdd.t160 a_6600_2510.t0 avdd.t161 pfet_03v3
**devattr s=26000,604 d=26000,604
X30 a_1478_440 B6.t0 a_1290_1160.t3 avss.t181 nfet_03v3
**devattr s=17600,576 d=10400,304
X31 avdd.t321 a_25464_3764.t4 dffrs_2.Q.t3 avdd.t320 pfet_03v3
**devattr s=26000,604 d=26000,604
X32 a_35200_6061 avdd.t380 a_35016_6061 avss.t97 nfet_03v3
**devattr s=10400,304 d=10400,304
X33 avdd.t357 2inmux_2.Bit.t5 a_10762_3500.t3 avdd.t356 pfet_03v3
**devattr s=52800,1376 d=52800,1376
X34 a_1290_1160.t1 B6.t1 avdd.t75 avdd.t74 pfet_03v3
**devattr s=52800,1376 d=52800,1376
X35 2inmux_2.Bit.t1 dffrs_0.Qb avdd.t13 avdd.t12 pfet_03v3
**devattr s=26000,604 d=44000,1176
X36 avdd.t343 clk.t2 a_6520_1558.t3 avdd.t342 pfet_03v3
**devattr s=26000,604 d=26000,604
X37 a_35200_8266 a_35016_2511.t4 a_35016_8266 avss.t208 nfet_03v3
**devattr s=10400,304 d=10400,304
X38 avss.t180 2inmux_1.Bit.t4 a_48838_2781 avss.t179 nfet_03v3
**devattr s=10400,304 d=17600,576
X39 avss.t24 a_40734_2781 a_41406_1605.t0 avss.t23 nfet_03v3
**devattr s=17600,576 d=17600,576
X40 avdd.t289 a_44488_2511.t4 a_44408_5969.t3 avdd.t288 pfet_03v3
**devattr s=26000,604 d=26000,604
X41 avdd.t363 a_25464_1559.t4 dffrs_2.Qb avdd.t362 pfet_03v3
**devattr s=26000,604 d=26000,604
X42 a_31262_2781 a_29706_3501.t4 avss.t131 avss.t130 nfet_03v3
**devattr s=17600,576 d=17600,576
X43 a_47944_1361 load.t3 avdd.t71 avdd.t70 pfet_03v3
**devattr s=52800,1376 d=52800,1376
X44 a_39366_2781 dffrs_3.Q.t4 avss.t196 avss.t195 nfet_03v3
**devattr s=17600,576 d=10400,304
X45 dffrs_0.Qb avdd.t157 avdd.t159 avdd.t158 pfet_03v3
**devattr s=26000,604 d=44000,1176
X46 avdd.t49 a_584_1360 a_1290_1160.t0 avdd.t48 pfet_03v3
**devattr s=52800,1376 d=52800,1376
X47 2inmux_3.OUT.t1 a_22462_1605.t4 avss.t102 avss.t101 nfet_03v3
**devattr s=17600,576 d=17600,576
X48 a_51066_2325 a_50206_441 a_50878_1605.t2 avdd.t317 pfet_03v3
**devattr s=52800,1376 d=31200,704
X49 a_12990_1604.t2 a_12318_440 a_13178_2324 avdd.t1 pfet_03v3
**devattr s=31200,704 d=52800,1376
X50 a_25464_5969.t3 a_25464_3764.t5 avdd.t323 avdd.t322 pfet_03v3
**devattr s=26000,604 d=44000,1176
X51 a_44488_2511.t3 a_44408_1559.t4 avdd.t281 avdd.t280 pfet_03v3
**devattr s=44000,1176 d=26000,604
X52 avdd.t156 avdd.t154 a_15992_3763.t2 avdd.t155 pfet_03v3
**devattr s=26000,604 d=26000,604
X53 a_44408_3764.t0 clk.t3 avdd.t345 avdd.t344 pfet_03v3
**devattr s=26000,604 d=44000,1176
X54 a_44408_1559.t0 a_44408_3764.t4 avdd.t193 avdd.t192 pfet_03v3
**devattr s=44000,1176 d=26000,604
X55 a_20422_2781 load.t4 a_20234_3501.t2 avss.t123 nfet_03v3
**devattr s=17600,576 d=10400,304
X56 avdd.t195 a_44408_3764.t5 2inmux_1.Bit.t1 avdd.t194 pfet_03v3
**devattr s=26000,604 d=26000,604
X57 a_54144_6061 avdd.t381 a_53960_6061 avss.t96 nfet_03v3
**devattr s=10400,304 d=10400,304
X58 a_55630_3857 a_53880_1559.t4 a_55446_3857 avss.t147 nfet_03v3
**devattr s=10400,304 d=10400,304
X59 a_54144_8266 a_53960_2511.t4 a_53960_8266 avss.t166 nfet_03v3
**devattr s=10400,304 d=10400,304
X60 avdd.t263 a_15992_3763.t5 dffrs_1.Q.t3 avdd.t262 pfet_03v3
**devattr s=26000,604 d=26000,604
X61 a_25544_6061 a_25464_5969.t4 avss.t161 avss.t160 nfet_03v3
**devattr s=17600,576 d=10400,304
X62 a_27030_3857 dffrs_2.Q.t5 avss.t220 avss.t219 nfet_03v3
**devattr s=17600,576 d=10400,304
X63 a_25544_8266 avdd.t382 avss.t95 avss.t94 nfet_03v3
**devattr s=17600,576 d=10400,304
X64 dffrs_2.Q.t1 dffrs_2.Qb avdd.t15 avdd.t14 pfet_03v3
**devattr s=26000,604 d=44000,1176
X65 a_55630_6061 a_53880_3764.t4 a_55446_6061 avss.t143 nfet_03v3
**devattr s=10400,304 d=10400,304
X66 a_3518_1604.t0 a_2846_440 avss.t7 avss.t6 nfet_03v3
**devattr s=17600,576 d=17600,576
X67 a_27030_6061 avdd.t383 avss.t93 avss.t92 nfet_03v3
**devattr s=17600,576 d=10400,304
X68 a_34936_3764.t1 clk.t4 a_35200_6061 avss.t245 nfet_03v3
**devattr s=10400,304 d=17600,576
X69 a_31262_2781 a_29706_3501.t5 avdd.t201 avdd.t200 pfet_03v3
**devattr s=52800,1376 d=52800,1376
X70 avdd.t277 dffrs_3.Q.t5 a_39178_3501.t0 avdd.t276 pfet_03v3
**devattr s=52800,1376 d=52800,1376
X71 a_16072_2510.t1 2inmux_2.OUT.t2 avdd.t249 avdd.t248 pfet_03v3
**devattr s=26000,604 d=44000,1176
X72 a_34936_5969.t2 a_34936_3764.t5 a_35200_8266 avss.t269 nfet_03v3
**devattr s=10400,304 d=17600,576
X73 avdd.t283 a_44408_1559.t5 dffrs_4.Qb avdd.t282 pfet_03v3
**devattr s=26000,604 d=26000,604
X74 a_15992_1558.t1 a_16072_2510.t4 avdd.t241 avdd.t240 pfet_03v3
**devattr s=26000,604 d=44000,1176
X75 a_39366_441 a_38472_1361 avss.t30 avss.t29 nfet_03v3
**devattr s=17600,576 d=10400,304
X76 a_21790_441 a_20234_1161.t5 avss.t151 avss.t150 nfet_03v3
**devattr s=17600,576 d=17600,576
X77 a_1290_1160.t2 B6.t2 a_1478_440 avss.t252 nfet_03v3
**devattr s=10400,304 d=17600,576
X78 a_44408_5969.t0 a_44408_3764.t6 avdd.t197 avdd.t196 pfet_03v3
**devattr s=26000,604 d=44000,1176
X79 avdd.t285 a_15992_1558.t4 dffrs_1.Qb avdd.t284 pfet_03v3
**devattr s=26000,604 d=26000,604
X80 dffrs_2.Qb avdd.t151 avdd.t153 avdd.t152 pfet_03v3
**devattr s=26000,604 d=44000,1176
X81 avss.t26 a_12318_2780 a_12990_1604.t3 avss.t25 nfet_03v3
**devattr s=17600,576 d=17600,576
X82 avdd.t243 a_16072_2510.t5 a_15992_5968.t3 avdd.t242 pfet_03v3
**devattr s=26000,604 d=26000,604
X83 a_53880_3764.t3 a_53880_5969.t4 avdd.t293 avdd.t292 pfet_03v3
**devattr s=44000,1176 d=26000,604
X84 a_2846_440 a_1290_1160.t4 avss.t135 avss.t134 nfet_03v3
**devattr s=17600,576 d=17600,576
X85 a_44672_1651 avdd.t384 a_44488_1651 avss.t91 nfet_03v3
**devattr s=10400,304 d=10400,304
X86 2inmux_4.OUT.t1 a_31934_1605.t4 avss.t201 avss.t200 nfet_03v3
**devattr s=17600,576 d=17600,576
X87 a_44672_3856 clk.t5 a_44488_3856 avss.t249 nfet_03v3
**devattr s=10400,304 d=10400,304
X88 dffrs_3.Q.t3 avdd.t148 avdd.t150 avdd.t149 pfet_03v3
**devattr s=44000,1176 d=26000,604
X89 a_45974_3857 2inmux_1.Bit.t5 avss.t117 avss.t116 nfet_03v3
**devattr s=17600,576 d=10400,304
X90 a_10950_2780 load.t5 a_10762_3500.t2 avss.t124 nfet_03v3
**devattr s=17600,576 d=10400,304
X91 a_25544_2511.t2 2inmux_3.OUT.t2 a_25728_1651 avss.t279 nfet_03v3
**devattr s=10400,304 d=17600,576
X92 a_1478_440 a_584_1360 avss.t38 avss.t37 nfet_03v3
**devattr s=17600,576 d=10400,304
X93 a_16072_6060 a_15992_5968.t4 avss.t271 avss.t270 nfet_03v3
**devattr s=17600,576 d=10400,304
X94 a_25464_1559.t1 a_25544_2511.t4 a_25728_3856 avss.t41 nfet_03v3
**devattr s=10400,304 d=17600,576
X95 a_25728_6061 avdd.t385 a_25544_6061 avss.t90 nfet_03v3
**devattr s=10400,304 d=10400,304
X96 a_45974_6061 avdd.t386 avss.t89 avss.t88 nfet_03v3
**devattr s=17600,576 d=10400,304
X97 a_53880_3764.t0 clk.t6 a_54144_6061 avss.t250 nfet_03v3
**devattr s=10400,304 d=17600,576
X98 dffrs_5.Qb avdd.t387 a_55630_3857 avss.t87 nfet_03v3
**devattr s=10400,304 d=17600,576
X99 a_10762_1160.t0 B5.t0 avdd.t219 avdd.t218 pfet_03v3
**devattr s=52800,1376 d=52800,1376
X100 a_19528_1361 load.t6 avss.t127 avss.t126 nfet_03v3
**devattr s=17600,576 d=17600,576
X101 a_39366_2781 load.t7 a_39178_3501.t3 avss.t128 nfet_03v3
**devattr s=17600,576 d=10400,304
X102 avdd.t147 avdd.t145 a_35016_2511.t1 avdd.t146 pfet_03v3
**devattr s=26000,604 d=26000,604
X103 a_16072_8265 avdd.t388 avss.t86 avss.t85 nfet_03v3
**devattr s=17600,576 d=10400,304
X104 a_25728_8266 a_25544_2511.t5 a_25544_8266 avss.t42 nfet_03v3
**devattr s=10400,304 d=10400,304
X105 a_53880_5969.t2 a_53880_3764.t5 a_54144_8266 avss.t144 nfet_03v3
**devattr s=10400,304 d=17600,576
X106 dffrs_1.Q.t1 dffrs_1.Qb avdd.t199 avdd.t198 pfet_03v3
**devattr s=26000,604 d=44000,1176
X107 a_6520_3763.t3 clk.t7 a_6784_6060 avss.t251 nfet_03v3
**devattr s=10400,304 d=17600,576
X108 avdd.t7 clk.t8 a_34936_1559.t0 avdd.t6 pfet_03v3
**devattr s=26000,604 d=26000,604
X109 avdd.t35 a_12318_2780 a_13178_2324 avdd.t34 pfet_03v3
**devattr s=31200,704 d=52800,1376
X110 a_22462_1605.t3 a_21790_441 avss.t287 avss.t286 nfet_03v3
**devattr s=17600,576 d=17600,576
X111 a_53880_5969.t0 avdd.t142 avdd.t144 avdd.t143 pfet_03v3
**devattr s=44000,1176 d=26000,604
X112 a_6520_5968.t2 a_6520_3763.t6 a_6784_8265 avss.t238 nfet_03v3
**devattr s=10400,304 d=17600,576
X113 serial_out.t3 dffrs_5.Qb a_55630_6061 avss.t242 nfet_03v3
**devattr s=10400,304 d=17600,576
X114 dffrs_3.Qb dffrs_3.Q.t6 avdd.t279 avdd.t278 pfet_03v3
**devattr s=44000,1176 d=26000,604
X115 avss.t28 a_38472_1361 a_39366_441 avss.t27 nfet_03v3
**devattr s=10400,304 d=17600,576
X116 a_39366_441 B2.t0 a_39178_1161.t2 avss.t120 nfet_03v3
**devattr s=17600,576 d=10400,304
X117 dffrs_1.Qb avdd.t139 avdd.t141 avdd.t140 pfet_03v3
**devattr s=26000,604 d=44000,1176
X118 serial_out.t0 avdd.t136 avdd.t138 avdd.t137 pfet_03v3
**devattr s=44000,1176 d=26000,604
X119 a_16256_1650 avdd.t389 a_16072_1650 avss.t84 nfet_03v3
**devattr s=10400,304 d=10400,304
X120 a_44488_2511.t1 2inmux_5.OUT.t2 a_44672_1651 avss.t168 nfet_03v3
**devattr s=10400,304 d=17600,576
X121 a_6520_3763.t1 a_6520_5968.t4 avdd.t187 avdd.t186 pfet_03v3
**devattr s=44000,1176 d=26000,604
X122 a_16256_3855 clk.t9 a_16072_3855 avss.t5 nfet_03v3
**devattr s=10400,304 d=10400,304
X123 a_44408_1559.t2 a_44488_2511.t5 a_44672_3856 avss.t173 nfet_03v3
**devattr s=10400,304 d=17600,576
X124 avss.t36 a_584_1360 a_1478_440 avss.t35 nfet_03v3
**devattr s=10400,304 d=17600,576
X125 a_17558_3856 dffrs_1.Q.t5 avss.t15 avss.t14 nfet_03v3
**devattr s=17600,576 d=10400,304
X126 avdd.t135 avdd.t133 a_53960_2511.t1 avdd.t134 pfet_03v3
**devattr s=26000,604 d=26000,604
X127 a_48650_3501.t1 load.t8 a_48838_2781 avss.t136 nfet_03v3
**devattr s=10400,304 d=17600,576
X128 a_41406_1605.t3 a_40734_441 avss.t47 avss.t46 nfet_03v3
**devattr s=17600,576 d=17600,576
X129 avdd.t361 a_34936_3764.t6 dffrs_3.Q.t0 avdd.t360 pfet_03v3
**devattr s=26000,604 d=26000,604
X130 avdd.t9 clk.t10 a_53880_1559.t0 avdd.t8 pfet_03v3
**devattr s=26000,604 d=26000,604
X131 a_25544_2511.t0 a_25464_1559.t5 avdd.t365 avdd.t364 pfet_03v3
**devattr s=44000,1176 d=26000,604
X132 a_25464_1559.t3 a_25464_3764.t6 avdd.t325 avdd.t324 pfet_03v3
**devattr s=44000,1176 d=26000,604
X133 dffrs_5.Qb serial_out.t4 avdd.t177 avdd.t176 pfet_03v3
**devattr s=44000,1176 d=26000,604
X134 a_12990_1604.t0 a_12318_440 avss.t3 avss.t2 nfet_03v3
**devattr s=17600,576 d=17600,576
X135 2inmux_1.OUT.t0 a_50878_1605.t5 avdd.t215 avdd.t214 pfet_03v3
**devattr s=52800,1376 d=52800,1376
X136 a_17558_6060 avdd.t390 avss.t83 avss.t82 nfet_03v3
**devattr s=17600,576 d=10400,304
X137 avss.t216 avss.t214 a_1478_2780 avss.t215 nfet_03v3
**devattr s=10400,304 d=17600,576
X138 a_22650_2325 a_21790_2781 avdd.t275 avdd.t274 pfet_03v3
**devattr s=52800,1376 d=31200,704
X139 a_35016_2511.t2 2inmux_4.OUT.t2 avdd.t297 avdd.t296 pfet_03v3
**devattr s=26000,604 d=44000,1176
X140 a_34936_1559.t3 a_35016_2511.t5 avdd.t301 avdd.t300 pfet_03v3
**devattr s=26000,604 d=44000,1176
X141 2inmux_0.OUT.t0 a_3518_1604.t5 avdd.t235 avdd.t234 pfet_03v3
**devattr s=52800,1376 d=52800,1376
X142 avss.t115 a_50206_2781 a_50878_1605.t0 avss.t114 nfet_03v3
**devattr s=17600,576 d=17600,576
X143 a_40734_2781 a_39178_3501.t4 avss.t260 avss.t259 nfet_03v3
**devattr s=17600,576 d=17600,576
X144 avdd.t225 a_34936_1559.t5 dffrs_3.Qb avdd.t224 pfet_03v3
**devattr s=26000,604 d=26000,604
X145 a_20422_441 B4.t0 a_20234_1161.t0 avss.t43 nfet_03v3
**devattr s=17600,576 d=10400,304
X146 a_48838_2781 2inmux_1.Bit.t6 avss.t119 avss.t118 nfet_03v3
**devattr s=17600,576 d=10400,304
X147 a_6520_5968.t3 avdd.t130 avdd.t132 avdd.t131 pfet_03v3
**devattr s=44000,1176 d=26000,604
X148 a_53960_1651 a_53880_1559.t5 avss.t149 avss.t148 nfet_03v3
**devattr s=17600,576 d=10400,304
X149 a_53960_3856 a_53880_3764.t6 avss.t146 avss.t145 nfet_03v3
**devattr s=17600,576 d=10400,304
X150 a_12318_440 a_10762_1160.t4 avss.t140 avss.t139 nfet_03v3
**devattr s=17600,576 d=17600,576
X151 a_41406_1605.t2 a_40734_441 a_41594_2325 avdd.t59 pfet_03v3
**devattr s=31200,704 d=52800,1376
X152 a_48650_3501.t2 load.t9 avdd.t213 avdd.t212 pfet_03v3
**devattr s=52800,1376 d=52800,1376
X153 a_29706_3501.t2 load.t10 a_29894_2781 avss.t104 nfet_03v3
**devattr s=10400,304 d=17600,576
X154 avdd.t129 avdd.t127 a_6520_3763.t0 avdd.t128 pfet_03v3
**devattr s=26000,604 d=26000,604
X155 a_35016_6061 a_34936_5969.t4 avss.t172 avss.t171 nfet_03v3
**devattr s=17600,576 d=10400,304
X156 2inmux_2.Bit.t3 avdd.t124 avdd.t126 avdd.t125 pfet_03v3
**devattr s=44000,1176 d=26000,604
X157 a_16072_2510.t3 a_15992_1558.t5 avdd.t287 avdd.t286 pfet_03v3
**devattr s=44000,1176 d=26000,604
X158 a_10056_1360 load.t11 avss.t106 avss.t105 nfet_03v3
**devattr s=17600,576 d=17600,576
X159 a_53960_2511.t3 2inmux_1.OUT.t2 avdd.t309 avdd.t308 pfet_03v3
**devattr s=26000,604 d=44000,1176
X160 a_35016_8266 avdd.t391 avss.t81 avss.t80 nfet_03v3
**devattr s=17600,576 d=10400,304
X161 a_15992_1558.t3 a_15992_3763.t6 avdd.t265 avdd.t264 pfet_03v3
**devattr s=44000,1176 d=26000,604
X162 a_40734_2781 a_39178_3501.t5 avdd.t355 avdd.t354 pfet_03v3
**devattr s=52800,1376 d=52800,1376
X163 avdd.t123 avdd.t121 a_25544_2511.t3 avdd.t122 pfet_03v3
**devattr s=26000,604 d=26000,604
X164 a_41594_2325 a_40734_2781 avdd.t31 avdd.t30 pfet_03v3
**devattr s=52800,1376 d=31200,704
X165 avdd.t205 a_31262_2781 a_32122_2325 avdd.t204 pfet_03v3
**devattr s=31200,704 d=52800,1376
X166 avdd.t23 clk.t11 a_25464_1559.t0 avdd.t22 pfet_03v3
**devattr s=26000,604 d=26000,604
X167 a_53880_1559.t2 a_53960_2511.t5 avdd.t251 avdd.t250 pfet_03v3
**devattr s=26000,604 d=44000,1176
X168 avdd.t185 2inmux_1.Bit.t7 a_48650_3501.t0 avdd.t184 pfet_03v3
**devattr s=52800,1376 d=52800,1376
X169 a_6600_2510.t3 2inmux_0.OUT.t2 avdd.t371 avdd.t370 pfet_03v3
**devattr s=26000,604 d=44000,1176
X170 a_584_1360 load.t12 avss.t183 avss.t182 nfet_03v3
**devattr s=17600,576 d=17600,576
X171 a_6520_1558.t0 a_6600_2510.t4 avdd.t5 avdd.t4 pfet_03v3
**devattr s=26000,604 d=44000,1176
X172 dffrs_3.Qb avdd.t392 a_36686_3857 avss.t79 nfet_03v3
**devattr s=10400,304 d=17600,576
X173 avss.t17 dffrs_1.Q.t6 a_20422_2781 avss.t16 nfet_03v3
**devattr s=10400,304 d=17600,576
X174 2inmux_3.OUT.t0 a_22462_1605.t5 avdd.t167 avdd.t166 pfet_03v3
**devattr s=52800,1376 d=52800,1376
X175 a_20234_1161.t2 B4.t1 avdd.t221 avdd.t220 pfet_03v3
**devattr s=52800,1376 d=52800,1376
X176 dffrs_0.Qb 2inmux_2.Bit.t6 avdd.t369 avdd.t368 pfet_03v3
**devattr s=44000,1176 d=26000,604
X177 a_20234_1161.t3 B4.t2 a_20422_441 avss.t138 nfet_03v3
**devattr s=10400,304 d=17600,576
X178 dffrs_3.Q.t1 dffrs_3.Qb a_36686_6061 avss.t48 nfet_03v3
**devattr s=10400,304 d=17600,576
X179 a_12318_2780 a_10762_3500.t4 avss.t203 avss.t202 nfet_03v3
**devattr s=17600,576 d=17600,576
X180 avdd.t21 a_6600_2510.t5 a_6520_5968.t0 avdd.t20 pfet_03v3
**devattr s=26000,604 d=26000,604
X181 a_29706_3501.t3 load.t13 avdd.t269 avdd.t268 pfet_03v3
**devattr s=52800,1376 d=52800,1376
X182 avss.t289 a_2846_2780 a_3518_1604.t3 avss.t288 nfet_03v3
**devattr s=17600,576 d=17600,576
X183 2inmux_5.OUT.t1 a_41406_1605.t4 avss.t154 avss.t153 nfet_03v3
**devattr s=17600,576 d=17600,576
X184 a_44408_3764.t3 a_44408_5969.t4 avdd.t319 avdd.t318 pfet_03v3
**devattr s=44000,1176 d=26000,604
X185 a_6600_1650 a_6520_1558.t6 avss.t40 avss.t39 nfet_03v3
**devattr s=17600,576 d=10400,304
X186 a_50206_441 a_48650_1161.t5 avdd.t259 avdd.t258 pfet_03v3
**devattr s=52800,1376 d=52800,1376
X187 a_2846_440 a_1290_1160.t5 avdd.t211 avdd.t210 pfet_03v3
**devattr s=52800,1376 d=52800,1376
X188 avdd.t67 a_19528_1361 a_20234_1161.t1 avdd.t66 pfet_03v3
**devattr s=52800,1376 d=52800,1376
X189 a_6600_3855 a_6520_3763.t7 avss.t240 avss.t239 nfet_03v3
**devattr s=17600,576 d=10400,304
X190 a_3706_2324 a_2846_440 a_3518_1604.t2 avdd.t11 pfet_03v3
**devattr s=52800,1376 d=31200,704
X191 avss.t235 a_10056_1360 a_10950_440 avss.t234 nfet_03v3
**devattr s=10400,304 d=17600,576
X192 a_39178_1161.t1 B2.t1 a_39366_441 avss.t165 nfet_03v3
**devattr s=10400,304 d=17600,576
X193 a_20422_441 a_19528_1361 avss.t53 avss.t52 nfet_03v3
**devattr s=17600,576 d=10400,304
X194 a_10950_440 B5.t1 a_10762_1160.t2 avss.t274 nfet_03v3
**devattr s=17600,576 d=10400,304
X195 a_31934_1605.t3 a_31262_441 avss.t224 avss.t223 nfet_03v3
**devattr s=17600,576 d=17600,576
X196 a_15992_3763.t0 clk.t12 avdd.t25 avdd.t24 pfet_03v3
**devattr s=26000,604 d=44000,1176
X197 2inmux_1.Bit.t3 dffrs_4.Qb avdd.t353 avdd.t352 pfet_03v3
**devattr s=26000,604 d=44000,1176
X198 avdd.t377 a_2846_2780 a_3706_2324 avdd.t376 pfet_03v3
**devattr s=31200,704 d=52800,1376
X199 a_40734_441 a_39178_1161.t4 avss.t170 avss.t169 nfet_03v3
**devattr s=17600,576 d=17600,576
X200 a_39178_1161.t3 B2.t2 avdd.t233 avdd.t232 pfet_03v3
**devattr s=52800,1376 d=52800,1376
X201 a_8270_3856 a_6520_1558.t7 a_8086_3856 avss.t20 nfet_03v3
**devattr s=10400,304 d=10400,304
X202 a_12318_2780 a_10762_3500.t5 avdd.t307 avdd.t306 pfet_03v3
**devattr s=52800,1376 d=52800,1376
X203 a_13178_2324 a_12318_2780 avdd.t33 avdd.t32 pfet_03v3
**devattr s=52800,1376 d=31200,704
X204 a_44408_5969.t2 avdd.t118 avdd.t120 avdd.t119 pfet_03v3
**devattr s=44000,1176 d=26000,604
X205 a_8270_6060 a_6520_3763.t8 a_8086_6060 avss.t241 nfet_03v3
**devattr s=10400,304 d=10400,304
X206 2inmux_4.OUT.t0 a_31934_1605.t5 avdd.t295 avdd.t294 pfet_03v3
**devattr s=52800,1376 d=52800,1376
X207 dffrs_4.Qb avdd.t115 avdd.t117 avdd.t116 pfet_03v3
**devattr s=26000,604 d=44000,1176
X208 a_21790_2781 a_20234_3501.t4 avss.t113 avss.t112 nfet_03v3
**devattr s=17600,576 d=17600,576
X209 a_29894_2781 dffrs_2.Q.t6 avss.t222 avss.t221 nfet_03v3
**devattr s=17600,576 d=10400,304
X210 avdd.t327 a_10056_1360 a_10762_1160.t3 avdd.t326 pfet_03v3
**devattr s=52800,1376 d=52800,1376
X211 2inmux_2.OUT.t1 a_12990_1604.t4 avss.t273 avss.t272 nfet_03v3
**devattr s=17600,576 d=17600,576
X212 a_31934_1605.t2 a_31262_441 a_32122_2325 avdd.t315 pfet_03v3
**devattr s=31200,704 d=52800,1376
X213 a_15992_5968.t1 a_15992_3763.t7 avdd.t267 avdd.t266 pfet_03v3
**devattr s=26000,604 d=44000,1176
X214 a_6784_1650 avdd.t393 a_6600_1650 avss.t78 nfet_03v3
**devattr s=10400,304 d=10400,304
X215 a_19528_1361 load.t14 avdd.t171 avdd.t170 pfet_03v3
**devattr s=52800,1376 d=52800,1376
X216 a_22650_2325 a_21790_441 a_22462_1605.t1 avdd.t372 pfet_03v3
**devattr s=52800,1376 d=31200,704
X217 a_6784_3855 clk.t13 a_6600_3855 avss.t21 nfet_03v3
**devattr s=10400,304 d=10400,304
X218 a_1290_3500.t1 load.t15 a_1478_2780 avss.t103 nfet_03v3
**devattr s=10400,304 d=17600,576
X219 a_35016_2511.t0 a_34936_1559.t6 avdd.t217 avdd.t216 pfet_03v3
**devattr s=44000,1176 d=26000,604
X220 avdd.t114 avdd.t112 a_34936_3764.t2 avdd.t113 pfet_03v3
**devattr s=26000,604 d=26000,604
X221 a_34936_1559.t1 a_34936_3764.t7 avdd.t63 avdd.t62 pfet_03v3
**devattr s=44000,1176 d=26000,604
X222 a_44672_6061 avdd.t394 a_44488_6061 avss.t77 nfet_03v3
**devattr s=10400,304 d=10400,304
X223 a_38472_1361 load.t16 avss.t109 avss.t108 nfet_03v3
**devattr s=17600,576 d=17600,576
X224 a_44672_8266 a_44488_2511.t6 a_44488_8266 avss.t174 nfet_03v3
**devattr s=10400,304 d=10400,304
X225 dffrs_0.Qb avdd.t395 a_8270_3856 avss.t76 nfet_03v3
**devattr s=10400,304 d=17600,576
X226 a_27214_3857 a_25464_1559.t6 a_27030_3857 avss.t56 nfet_03v3
**devattr s=10400,304 d=10400,304
X227 a_1478_2780 avss.t211 avss.t213 avss.t212 nfet_03v3
**devattr s=17600,576 d=10400,304
X228 avss.t51 a_19528_1361 a_20422_441 avss.t50 nfet_03v3
**devattr s=10400,304 d=17600,576
X229 a_25464_3764.t1 clk.t14 a_25728_6061 avss.t247 nfet_03v3
**devattr s=10400,304 d=17600,576
X230 a_21790_2781 a_20234_3501.t5 avdd.t261 avdd.t260 pfet_03v3
**devattr s=52800,1376 d=52800,1376
X231 avdd.t313 dffrs_2.Q.t7 a_29706_3501.t0 avdd.t312 pfet_03v3
**devattr s=52800,1376 d=52800,1376
X232 a_25464_5969.t2 a_25464_3764.t7 a_25728_8266 avss.t204 nfet_03v3
**devattr s=10400,304 d=17600,576
X233 a_27214_6061 a_25464_3764.t8 a_27030_6061 avss.t205 nfet_03v3
**devattr s=10400,304 d=10400,304
X234 a_10762_1160.t1 B5.t2 a_10950_440 avss.t209 nfet_03v3
**devattr s=10400,304 d=17600,576
X235 a_10950_440 a_10056_1360 avss.t233 avss.t232 nfet_03v3
**devattr s=17600,576 d=10400,304
X236 2inmux_2.Bit.t0 dffrs_0.Qb a_8270_6060 avss.t8 nfet_03v3
**devattr s=10400,304 d=17600,576
X237 a_50878_1605.t1 a_50206_441 a_51066_2325 avdd.t316 pfet_03v3
**devattr s=31200,704 d=52800,1376
X238 a_44488_1651 a_44408_1559.t6 avss.t158 avss.t157 nfet_03v3
**devattr s=17600,576 d=10400,304
X239 avss.t133 a_31262_2781 a_31934_1605.t0 avss.t132 nfet_03v3
**devattr s=17600,576 d=17600,576
X240 avdd.t303 a_35016_2511.t6 a_34936_5969.t0 avdd.t302 pfet_03v3
**devattr s=26000,604 d=26000,604
X241 a_1290_3500.t2 load.t17 avdd.t175 avdd.t174 pfet_03v3
**devattr s=52800,1376 d=52800,1376
X242 a_44488_3856 a_44408_3764.t7 avss.t176 avss.t175 nfet_03v3
**devattr s=17600,576 d=10400,304
X243 a_41594_2325 a_40734_441 a_41406_1605.t1 avdd.t58 pfet_03v3
**devattr s=52800,1376 d=31200,704
X244 avdd.t111 avdd.t109 a_53880_3764.t2 avdd.t110 pfet_03v3
**devattr s=26000,604 d=26000,604
X245 a_25464_3764.t3 a_25464_5969.t5 avdd.t245 avdd.t244 pfet_03v3
**devattr s=44000,1176 d=26000,604
X246 a_13178_2324 a_12318_440 a_12990_1604.t1 avdd.t0 pfet_03v3
**devattr s=52800,1376 d=31200,704
X247 a_29894_2781 load.t18 a_29706_3501.t1 avss.t187 nfet_03v3
**devattr s=17600,576 d=10400,304
X248 a_31262_441 a_29706_1161.t4 avdd.t57 avdd.t56 pfet_03v3
**devattr s=52800,1376 d=52800,1376
X249 avdd.t37 a_38472_1361 a_39178_1161.t0 avdd.t36 pfet_03v3
**devattr s=52800,1376 d=52800,1376
X250 dffrs_2.Q.t2 avdd.t106 avdd.t108 avdd.t107 pfet_03v3
**devattr s=44000,1176 d=26000,604
X251 a_34936_3764.t0 clk.t15 avdd.t351 avdd.t350 pfet_03v3
**devattr s=26000,604 d=44000,1176
X252 avdd.t227 a_53880_3764.t7 serial_out.t1 avdd.t226 pfet_03v3
**devattr s=26000,604 d=26000,604
X253 a_46158_3857 a_44408_1559.t7 a_45974_3857 avss.t159 nfet_03v3
**devattr s=10400,304 d=10400,304
X254 a_16072_2510.t0 2inmux_2.OUT.t3 a_16256_1650 avss.t162 nfet_03v3
**devattr s=10400,304 d=17600,576
X255 a_51066_2325 a_50206_2781 avdd.t183 avdd.t182 pfet_03v3
**devattr s=52800,1376 d=31200,704
X256 avdd.t55 avss.t290 a_1290_3500.t3 avdd.t54 pfet_03v3
**devattr s=52800,1376 d=52800,1376
X257 a_15992_1558.t0 a_16072_2510.t6 a_16256_3855 avss.t164 nfet_03v3
**devattr s=10400,304 d=17600,576
X258 a_29894_441 a_29000_1361 avss.t13 avss.t12 nfet_03v3
**devattr s=17600,576 d=10400,304
X259 a_16256_6060 avdd.t396 a_16072_6060 avss.t75 nfet_03v3
**devattr s=10400,304 d=10400,304
X260 a_44408_3764.t1 clk.t16 a_44672_6061 avss.t248 nfet_03v3
**devattr s=10400,304 d=17600,576
X261 a_17742_3856 a_15992_1558.t6 a_17558_3856 avss.t192 nfet_03v3
**devattr s=10400,304 d=10400,304
X262 a_16256_8265 a_16072_2510.t7 a_16072_8265 avss.t163 nfet_03v3
**devattr s=10400,304 d=10400,304
X263 a_44408_5969.t1 a_44408_3764.t8 a_44672_8266 avss.t177 nfet_03v3
**devattr s=10400,304 d=17600,576
X264 a_46158_6061 a_44408_3764.t9 a_45974_6061 avss.t178 nfet_03v3
**devattr s=10400,304 d=10400,304
X265 dffrs_2.Qb avdd.t397 a_27214_3857 avss.t74 nfet_03v3
**devattr s=10400,304 d=17600,576
X266 a_17742_6060 a_15992_3763.t8 a_17558_6060 avss.t256 nfet_03v3
**devattr s=10400,304 d=10400,304
X267 dffrs_2.Qb dffrs_2.Q.t8 avdd.t311 avdd.t310 pfet_03v3
**devattr s=44000,1176 d=26000,604
X268 avdd.t39 a_53880_1559.t6 dffrs_5.Qb avdd.t38 pfet_03v3
**devattr s=26000,604 d=26000,604
X269 avdd.t291 a_53960_2511.t6 a_53880_5969.t1 avdd.t290 pfet_03v3
**devattr s=26000,604 d=26000,604
X270 dffrs_2.Q.t0 dffrs_2.Qb a_27214_6061 avss.t9 nfet_03v3
**devattr s=10400,304 d=17600,576
X271 a_25464_5969.t0 avdd.t103 avdd.t105 avdd.t104 pfet_03v3
**devattr s=44000,1176 d=26000,604
X272 a_10056_1360 load.t19 avdd.t271 avdd.t270 pfet_03v3
**devattr s=52800,1376 d=52800,1376
X273 a_34936_5969.t1 a_34936_3764.t8 avdd.t65 avdd.t64 pfet_03v3
**devattr s=26000,604 d=44000,1176
X274 a_31262_441 a_29706_1161.t5 avss.t237 avss.t236 nfet_03v3
**devattr s=17600,576 d=17600,576
X275 a_15992_3763.t3 a_15992_5968.t5 avdd.t299 avdd.t298 pfet_03v3
**devattr s=44000,1176 d=26000,604
X276 a_35200_1651 avdd.t398 a_35016_1651 avss.t73 nfet_03v3
**devattr s=10400,304 d=10400,304
X277 a_10762_3500.t1 load.t21 a_10950_2780 avss.t107 nfet_03v3
**devattr s=10400,304 d=17600,576
X278 a_584_1360 load.t20 avdd.t173 avdd.t172 pfet_03v3
**devattr s=52800,1376 d=52800,1376
X279 a_53880_3764.t1 clk.t17 avdd.t339 avdd.t338 pfet_03v3
**devattr s=26000,604 d=44000,1176
X280 2inmux_1.Bit.t0 avdd.t79 avdd.t81 avdd.t80 pfet_03v3
**devattr s=44000,1176 d=26000,604
X281 avdd.t102 avdd.t100 a_25464_3764.t2 avdd.t101 pfet_03v3
**devattr s=26000,604 d=26000,604
X282 a_35200_3856 clk.t19 a_35016_3856 avss.t244 nfet_03v3
**devattr s=10400,304 d=10400,304
X283 a_53960_6061 a_53880_5969.t5 avss.t199 avss.t198 nfet_03v3
**devattr s=17600,576 d=10400,304
X284 a_6520_3763.t2 clk.t18 avdd.t341 avdd.t340 pfet_03v3
**devattr s=26000,604 d=44000,1176
X285 a_29000_1361 load.t22 avss.t33 avss.t32 nfet_03v3
**devattr s=17600,576 d=17600,576
X286 avdd.t99 avdd.t97 a_44488_2511.t0 avdd.t98 pfet_03v3
**devattr s=26000,604 d=26000,604
X287 avdd.t181 a_50206_2781 a_51066_2325 avdd.t180 pfet_03v3
**devattr s=31200,704 d=52800,1376
X288 a_36502_3857 dffrs_3.Q.t7 avss.t191 avss.t190 nfet_03v3
**devattr s=17600,576 d=10400,304
X289 serial_out.t2 dffrs_5.Qb avdd.t335 avdd.t334 pfet_03v3
**devattr s=26000,604 d=44000,1176
X290 a_53960_8266 avdd.t399 avss.t72 avss.t71 nfet_03v3
**devattr s=17600,576 d=10400,304
X291 a_3706_2324 a_2846_2780 avdd.t375 avdd.t374 pfet_03v3
**devattr s=52800,1376 d=31200,704
X292 avdd.t347 clk.t20 a_44408_1559.t1 avdd.t346 pfet_03v3
**devattr s=26000,604 d=26000,604
X293 2inmux_5.OUT.t0 a_41406_1605.t5 avdd.t239 avdd.t238 pfet_03v3
**devattr s=52800,1376 d=52800,1376
X294 a_25544_2511.t1 2inmux_3.OUT.t3 avdd.t179 avdd.t178 pfet_03v3
**devattr s=26000,604 d=44000,1176
X295 dffrs_1.Qb avdd.t401 a_17742_3856 avss.t68 nfet_03v3
**devattr s=10400,304 d=17600,576
X296 dffrs_4.Qb 2inmux_1.Bit.t8 avdd.t305 avdd.t304 pfet_03v3
**devattr s=44000,1176 d=26000,604
X297 a_36502_6061 avdd.t400 avss.t70 avss.t69 nfet_03v3
**devattr s=17600,576 d=10400,304
X298 dffrs_5.Qb avdd.t94 avdd.t96 avdd.t95 pfet_03v3
**devattr s=26000,604 d=44000,1176
X299 a_25464_1559.t2 a_25544_2511.t6 avdd.t207 avdd.t206 pfet_03v3
**devattr s=26000,604 d=44000,1176
X300 avss.t11 a_29000_1361 a_29894_441 avss.t10 nfet_03v3
**devattr s=10400,304 d=17600,576
X301 dffrs_1.Q.t2 dffrs_1.Qb a_17742_6060 avss.t129 nfet_03v3
**devattr s=10400,304 d=17600,576
X302 a_53880_5969.t3 a_53880_3764.t8 avdd.t229 avdd.t228 pfet_03v3
**devattr s=26000,604 d=44000,1176
X303 a_15992_5968.t2 avdd.t91 avdd.t93 avdd.t92 pfet_03v3
**devattr s=44000,1176 d=26000,604
X304 a_54144_1651 avdd.t402 a_53960_1651 avss.t67 nfet_03v3
**devattr s=10400,304 d=10400,304
X305 a_10762_3500.t0 load.t23 avdd.t45 avdd.t44 pfet_03v3
**devattr s=52800,1376 d=52800,1376
X306 avdd.t209 a_25544_2511.t7 a_25464_5969.t1 avdd.t208 pfet_03v3
**devattr s=26000,604 d=26000,604
X307 a_32122_2325 a_31262_441 a_31934_1605.t1 avdd.t314 pfet_03v3
**devattr s=52800,1376 d=31200,704
X308 a_25544_1651 a_25464_1559.t7 avss.t58 avss.t57 nfet_03v3
**devattr s=17600,576 d=10400,304
X309 a_6520_5968.t1 a_6520_3763.t9 avdd.t333 avdd.t332 pfet_03v3
**devattr s=26000,604 d=44000,1176
X310 a_54144_3856 clk.t21 a_53960_3856 avss.t246 nfet_03v3