* NGSPICE file created from comp_SAR_final.ext - technology: (null)

.subckt comp_SAR_final Clk_piso Vdd Vss Load Clk Piso_out Vin1 Vin2 Comp_out Reset SAR_in
X0 Vdd.t103 SARlogic_0.d3.t4 SARlogic_0.dffrs_7.nand3_8.C.t0 Vdd.t102 pfet_03v3
**devattr s=26000,604 d=26000,604
X1 a_5803_9634 SARlogic_0.dffrs_4.d.t4 Vss.t656 Vss.t655 nfet_03v3
**devattr s=17600,576 d=10400,304
X2 adc_PISO_0.dffrs_4.Qb Vdd.t738 Vdd.t740 Vdd.t739 pfet_03v3
**devattr s=26000,604 d=44000,1176
X3 SARlogic_0.dffrs_12.nand3_1.C SARlogic_0.dffrs_12.nand3_6.C.t4 Vdd.t343 Vdd.t342 pfet_03v3
**devattr s=26000,604 d=44000,1176
X4 a_37687_30440 inv2_0.out.t2 a_37499_31160.t2 Vss.t548 nfet_03v3
**devattr s=17600,576 d=10400,304
X5 a_n7937_n2793 a_n8017_n2885 a_n9429_n2007.t17 Vss.t450 nfet_03v3
**devattr s=8320,264 d=14080,496
X6 a_28027_28820.t3 SARlogic_0.d1.t4 Vdd.t585 Vdd.t584 pfet_03v3
**devattr s=52800,1376 d=52800,1376
X7 Vss.t109 a_8377_29020 a_9271_28100 Vss.t108 nfet_03v3
**devattr s=10400,304 d=17600,576
X8 Vdd.t507 Reset.t0 SARlogic_0.dffrs_14.nand3_6.C.t1 Vdd.t506 pfet_03v3
**devattr s=26000,604 d=26000,604
X9 a_n7809_21417 SARlogic_0.dffrs_14.nand3_1.C Vss.t358 Vss.t357 nfet_03v3
**devattr s=17600,576 d=10400,304
X10 SARlogic_0.dffrs_2.nand3_1.C.t1 SARlogic_0.dffrs_2.nand3_6.C.t4 a_459_14043 Vss.t373 nfet_03v3
**devattr s=10400,304 d=17600,576
X11 SARlogic_0.d3.t3 SARlogic_0.dffrs_1.Qb.t4 Vdd.t369 Vdd.t368 pfet_03v3
**devattr s=44000,1176 d=26000,604
X12 SARlogic_0.dffrs_4.nand3_8.C.t2 SARlogic_0.dffrs_4.nand3_8.Z.t4 a_8543_9633 Vss.t367 nfet_03v3
**devattr s=10400,304 d=17600,576
X13 Vdd.t531 SARlogic_0.dffrs_1.nand3_8.C.t4 SARlogic_0.dffrs_1.Qb.t3 Vdd.t530 pfet_03v3
**devattr s=26000,604 d=26000,604
X14 adc_PISO_0.dffrs_0.Qb Vdd.t735 Vdd.t737 Vdd.t736 pfet_03v3
**devattr s=26000,604 d=44000,1176
X15 a_12401_7428 SARlogic_0.dffrs_5.nand3_8.C.t4 Vss.t531 Vss.t530 nfet_03v3
**devattr s=17600,576 d=10400,304
X16 SARlogic_0.dffrs_3.nand3_8.C.t2 SARlogic_0.dffrs_3.nand3_8.Z.t4 Vdd.t535 Vdd.t534 pfet_03v3
**devattr s=26000,604 d=44000,1176
X17 Vdd.t734 Vdd.t732 a_33257_31423.t1 Vdd.t733 pfet_03v3
**devattr s=26000,604 d=26000,604
X18 SARlogic_0.dffrs_5.nand3_8.C.t3 SARlogic_0.dffrs_5.nand3_6.C.t4 Vdd.t742 Vdd.t741 pfet_03v3
**devattr s=44000,1176 d=26000,604
X19 a_14071_9634 SARlogic_0.dffrs_5.nand3_8.C.t5 a_13887_9634 Vss.t353 nfet_03v3
**devattr s=10400,304 d=10400,304
X20 SARlogic_0.dffrs_1.Qb.t2 Reset.t1 Vdd.t417 Vdd.t416 pfet_03v3
**devattr s=26000,604 d=44000,1176
X21 a_18113_19210 SARlogic_0.dffrs_12.nand3_8.C.t4 a_17929_19210 Vss.t383 nfet_03v3
**devattr s=10400,304 d=10400,304
X22 Vdd.t567 comparator_no_offsetcal_0.no_offsetLatch_0.Vout1.t9 comparator_no_offsetcal_0.no_offsetLatch_0.Vout2.t8 Vdd.t566 pfet_03v3
**devattr s=10400,304 d=10400,304
X23 a_10029_9634 SARlogic_0.dffrs_4.nand3_8.C.t4 a_9845_9634 Vss.t350 nfet_03v3
**devattr s=10400,304 d=10400,304
X24 SARlogic_0.dffrs_1.nand3_6.C.t2 Clk.t0 a_n3583_11838 Vss.t23 nfet_03v3
**devattr s=10400,304 d=17600,576
X25 a_n4367_29309 Vdd.t955 a_n4551_29309 Vss.t529 nfet_03v3
**devattr s=10400,304 d=10400,304
X26 SARlogic_0.dffrs_9.Qb SARlogic_0.d2.t4 Vdd.t305 Vdd.t304 pfet_03v3
**devattr s=44000,1176 d=26000,604
X27 a_4841_33627.t2 a_4841_31422.t4 Vdd.t471 Vdd.t470 pfet_03v3
**devattr s=26000,604 d=44000,1176
X28 Vdd.t451 adc_PISO_0.2inmux_1.Bit.t4 a_37499_31160.t3 Vdd.t450 pfet_03v3
**devattr s=52800,1376 d=52800,1376
X29 SARlogic_0.dffrs_5.nand3_6.C.t3 SARlogic_0.dffrs_5.nand3_1.C.t4 Vdd.t830 Vdd.t829 pfet_03v3
**devattr s=44000,1176 d=26000,604
X30 SARlogic_0.dffrs_4.d.t3 Vdd.t729 Vdd.t731 Vdd.t730 pfet_03v3
**devattr s=44000,1176 d=26000,604
X31 SARlogic_0.dffrs_3.nand3_6.C.t3 Clk.t1 Vdd.t43 Vdd.t42 pfet_03v3
**devattr s=26000,604 d=44000,1176
X32 Vdd.t419 Reset.t2 SARlogic_0.dffrs_10.nand3_8.Z Vdd.t418 pfet_03v3
**devattr s=26000,604 d=26000,604
X33 Vdd.t509 a_33337_30170.t4 a_33257_33628.t2 Vdd.t508 pfet_03v3
**devattr s=26000,604 d=26000,604
X34 SARlogic_0.dffrs_13.Qb.t3 SARlogic_0.dffrs_0.d.t4 Vdd.t824 Vdd.t823 pfet_03v3
**devattr s=44000,1176 d=26000,604
X35 Vdd.t754 a_n10831_4320 Comp_out.t7 Vdd.t753 pfet_03v3
**devattr s=18700,450 d=18700,450
X36 a_10639_28100 a_9083_28820.t4 Vdd.t912 Vdd.t911 pfet_03v3
**devattr s=52800,1376 d=52800,1376
X37 a_5987_21414 SARlogic_0.dffrs_9.nand3_6.C.t4 a_5803_21414 Vss.t647 nfet_03v3
**devattr s=10400,304 d=10400,304
X38 a_275_7428 SARlogic_0.dffrs_2.nand3_8.C.t4 Vss.t659 Vss.t658 nfet_03v3
**devattr s=17600,576 d=10400,304
X39 adc_PISO_0.2inmux_5.OUT.t0 a_30255_29264.t4 Vss.t258 Vss.t257 nfet_03v3
**devattr s=17600,576 d=17600,576
X40 SARlogic_0.dffrs_10.nand3_6.C.t3 SARlogic_0.d0.t4 Vdd.t944 Vdd.t943 pfet_03v3
**devattr s=26000,604 d=44000,1176
X41 SARlogic_0.d1.t2 SARlogic_0.dffrs_3.Qb.t4 Vdd.t167 Vdd.t166 pfet_03v3
**devattr s=44000,1176 d=26000,604
X42 a_12585_21414 Reset.t3 a_12401_21414 Vss.t318 nfet_03v3
**devattr s=10400,304 d=10400,304
X43 SARlogic_0.dffrs_3.Qb.t2 Reset.t4 a_5987_9634 Vss.t319 nfet_03v3
**devattr s=10400,304 d=17600,576
X44 SARlogic_0.dffrs_12.nand3_6.C.t3 SARlogic_0.dffrs_12.nand3_1.C Vdd.t884 Vdd.t883 pfet_03v3
**devattr s=44000,1176 d=26000,604
X45 SARlogic_0.dffrs_1.Qb.t1 Reset.t5 a_n2097_9634 Vss.t320 nfet_03v3
**devattr s=10400,304 d=17600,576
X46 a_n11637_11838 Vdd.t956 a_n11821_11838 Vss.t528 nfet_03v3
**devattr s=10400,304 d=10400,304
X47 a_n4551_35924 Vdd.t957 Vss.t527 Vss.t526 nfet_03v3
**devattr s=17600,576 d=10400,304
X48 SARlogic_0.dffrs_4.nand3_8.Z.t1 SARlogic_0.dffrs_4.nand3_8.C.t5 Vdd.t457 Vdd.t456 pfet_03v3
**devattr s=44000,1176 d=26000,604
X49 a_1761_19210 SARlogic_0.d3.t5 Vss.t59 Vss.t58 nfet_03v3
**devattr s=17600,576 d=10400,304
X50 a_14393_33720 a_14313_33628.t4 Vss.t372 Vss.t371 nfet_03v3
**devattr s=17600,576 d=10400,304
X51 a_9271_28100 SARlogic_0.d3.t6 a_9083_28820.t1 Vss.t57 nfet_03v3
**devattr s=17600,576 d=10400,304
X52 SARlogic_0.dffrs_10.nand3_1.C SARlogic_0.dffrs_10.nand3_6.C.t4 Vdd.t287 Vdd.t286 pfet_03v3
**devattr s=26000,604 d=44000,1176
X53 SARlogic_0.dffrs_12.nand3_1.C SARlogic_0.dffrs_5.Qb.t4 Vdd.t846 Vdd.t845 pfet_03v3
**devattr s=44000,1176 d=26000,604
X54 a_12585_23619 SARlogic_0.dffrs_11.nand3_8.Z a_12401_23619 Vss.t118 nfet_03v3
**devattr s=10400,304 d=10400,304
X55 adc_PISO_0.dffrs_1.Qb adc_PISO_0.dffrs_1.Q.t4 Vdd.t844 Vdd.t843 pfet_03v3
**devattr s=44000,1176 d=26000,604
X56 Vdd.t377 SARlogic_0.dffrs_14.nand3_6.C.t4 SARlogic_0.d5.t0 Vdd.t376 pfet_03v3
**devattr s=26000,604 d=26000,604
X57 a_275_14043 Vdd.t958 Vss.t525 Vss.t524 nfet_03v3
**devattr s=17600,576 d=10400,304
X58 a_33257_29218.t1 a_33337_30170.t5 a_33521_31515 Vss.t384 nfet_03v3
**devattr s=10400,304 d=17600,576
X59 SARlogic_0.dffrs_0.Qb.t3 Reset.t6 a_n6139_9634 Vss.t321 nfet_03v3
**devattr s=10400,304 d=17600,576
X60 a_14393_35925 Vdd.t959 Vss.t523 Vss.t522 nfet_03v3
**devattr s=17600,576 d=10400,304
X61 SARlogic_0.dffrs_3.nand3_8.C.t1 SARlogic_0.dffrs_3.nand3_6.C.t4 Vdd.t383 Vdd.t382 pfet_03v3
**devattr s=44000,1176 d=26000,604
X62 a_9083_31160.t1 inv2_0.out.t3 a_9271_30440 Vss.t549 nfet_03v3
**devattr s=10400,304 d=17600,576
X63 a_23865_30170.t1 a_23785_29218.t4 Vdd.t217 Vdd.t216 pfet_03v3
**devattr s=44000,1176 d=26000,604
X64 a_18743_28100 a_17849_29020 Vss.t456 Vss.t455 nfet_03v3
**devattr s=17600,576 d=10400,304
X65 Vdd.t549 a_40051_37983 Piso_out.t7 Vdd.t548 pfet_03v3
**devattr s=18700,450 d=18700,450
X66 a_9845_19210 SARlogic_0.d1.t5 Vss.t428 Vss.t427 nfet_03v3
**devattr s=17600,576 d=10400,304
X67 SARlogic_0.dffrs_3.nand3_6.C.t0 SARlogic_0.dffrs_3.nand3_1.C.t4 Vdd.t223 Vdd.t222 pfet_03v3
**devattr s=44000,1176 d=26000,604
X68 a_42729_31423.t0 a_42729_33628.t4 Vdd.t193 Vdd.t192 pfet_03v3
**devattr s=44000,1176 d=26000,604
X69 a_29583_30440 a_28027_31160.t4 Vdd.t812 Vdd.t811 pfet_03v3
**devattr s=52800,1376 d=52800,1376
X70 SARlogic_0.dffrs_13.Qb.t2 Vdd.t726 Vdd.t728 Vdd.t727 pfet_03v3
**devattr s=26000,604 d=44000,1176
X71 a_23785_29218.t0 a_23785_31423.t4 Vdd.t237 Vdd.t236 pfet_03v3
**devattr s=44000,1176 d=26000,604
X72 Vdd.t121 a_20111_30440 a_20971_29984 Vdd.t120 pfet_03v3
**devattr s=31200,704 d=52800,1376
X73 a_n9429_n2007.t7 Vin1.t0 comparator_no_offsetcal_0.no_offsetLatch_0.Vp.t9 Vss.t260 nfet_03v3
**devattr s=15600,404 d=15600,404
X74 a_28027_31160.t1 inv2_0.out.t4 a_28215_30440 Vss.t550 nfet_03v3
**devattr s=10400,304 d=17600,576
X75 SARlogic_0.dffrs_10.nand3_6.C.t0 SARlogic_0.dffrs_10.nand3_1.C Vdd.t123 Vdd.t122 pfet_03v3
**devattr s=44000,1176 d=26000,604
X76 a_42729_33628.t2 Vdd.t723 Vdd.t725 Vdd.t724 pfet_03v3
**devattr s=44000,1176 d=26000,604
X77 a_n4631_33627.t0 a_n4631_31422.t4 a_n4367_35924 Vss.t670 nfet_03v3
**devattr s=10400,304 d=17600,576
X78 a_12401_17004 SARlogic_0.dffrs_11.nand3_8.C.t4 Vss.t184 Vss.t183 nfet_03v3
**devattr s=17600,576 d=10400,304
X79 SARlogic_0.dffrs_9.nand3_8.Z SAR_in.t0 a_4501_17004 Vss.t77 nfet_03v3
**devattr s=10400,304 d=17600,576
X80 a_n8305_30439 a_n9861_31159.t4 Vdd.t191 Vdd.t190 pfet_03v3
**devattr s=52800,1376 d=52800,1376
X81 a_n6139_19213 SARlogic_0.dffrs_14.nand3_8.C.t4 a_n6323_19213 Vss.t272 nfet_03v3
**devattr s=10400,304 d=10400,304
X82 a_n201_28099 a_n1095_29019 Vss.t547 Vss.t546 nfet_03v3
**devattr s=17600,576 d=10400,304
X83 SARlogic_0.dffrs_10.nand3_1.C SARlogic_0.dffrs_3.Qb.t5 Vdd.t169 Vdd.t168 pfet_03v3
**devattr s=44000,1176 d=26000,604
X84 SARlogic_0.d1.t0 SARlogic_0.dffrs_10.Qb Vdd.t127 Vdd.t126 pfet_03v3
**devattr s=26000,604 d=44000,1176
X85 Vdd.t722 Vdd.t720 SARlogic_0.dffrs_13.nand3_8.Z.t3 Vdd.t721 pfet_03v3
**devattr s=26000,604 d=26000,604
X86 SARlogic_0.dffrs_5.Qb.t1 Reset.t7 Vdd.t421 Vdd.t420 pfet_03v3
**devattr s=26000,604 d=44000,1176
X87 a_1167_30439 a_n389_31159.t4 Vdd.t107 Vdd.t106 pfet_03v3
**devattr s=52800,1376 d=52800,1376
X88 SARlogic_0.dffrs_9.nand3_8.C.t1 SARlogic_0.dffrs_9.nand3_8.Z a_4501_19209 Vss.t112 nfet_03v3
**devattr s=10400,304 d=17600,576
X89 SARlogic_0.dffrs_0.nand3_8.C.t2 SARlogic_0.dffrs_0.nand3_6.C.t4 Vdd.t33 Vdd.t32 pfet_03v3
**devattr s=44000,1176 d=26000,604
X90 a_12401_19209 SARlogic_0.dffrs_11.nand3_6.C.t4 Vss.t40 Vss.t39 nfet_03v3
**devattr s=17600,576 d=10400,304
X91 a_33337_31515 a_33257_31423.t4 Vss.t405 Vss.t404 nfet_03v3
**devattr s=17600,576 d=10400,304
X92 SARlogic_0.dffrs_14.nand3_1.C SARlogic_0.dffrs_13.Qb.t4 Vdd.t814 Vdd.t813 pfet_03v3
**devattr s=44000,1176 d=26000,604
X93 SARlogic_0.dffrs_3.nand3_8.C.t3 SARlogic_0.dffrs_3.nand3_8.Z.t5 a_4501_9633 Vss.t411 nfet_03v3
**devattr s=10400,304 d=17600,576
X94 a_10639_30440 a_9083_31160.t4 Vss.t580 Vss.t579 nfet_03v3
**devattr s=17600,576 d=17600,576
X95 Vdd.t461 SARlogic_0.dffrs_5.nand3_8.C.t6 SARlogic_0.dffrs_5.Qb.t3 Vdd.t460 pfet_03v3
**devattr s=26000,604 d=26000,604
X96 Piso_out.t3 a_40051_37983 Vss.t420 Vss.t419 nfet_03v3
**devattr s=9350,280 d=9350,280
X97 Vss.t87 a_29583_30440 a_30255_29264.t0 Vss.t86 nfet_03v3
**devattr s=17600,576 d=17600,576
X98 Vss.t341 adc_PISO_0.2inmux_1.Bit.t5 a_37687_30440 Vss.t340 nfet_03v3
**devattr s=10400,304 d=17600,576
X99 SARlogic_0.dffrs_8.nand3_6.C.t3 SARlogic_0.d2.t5 Vdd.t307 Vdd.t306 pfet_03v3
**devattr s=26000,604 d=44000,1176
X100 Vdd.t756 a_n1095_29019 a_n389_28819.t2 Vdd.t755 pfet_03v3
**devattr s=52800,1376 d=52800,1376
X101 Vss.t83 a_1167_30439 a_1839_29263.t0 Vss.t82 nfet_03v3
**devattr s=17600,576 d=17600,576
X102 a_5987_9634 SARlogic_0.dffrs_3.nand3_8.C.t4 a_5803_9634 Vss.t401 nfet_03v3
**devattr s=10400,304 d=10400,304
X103 SARlogic_0.dffrs_0.nand3_6.C.t1 SARlogic_0.dffrs_0.nand3_1.C.t4 Vdd.t367 Vdd.t366 pfet_03v3
**devattr s=44000,1176 d=26000,604
X104 SARlogic_0.dffrs_5.nand3_1.C.t2 Vdd.t717 Vdd.t719 Vdd.t718 pfet_03v3
**devattr s=44000,1176 d=26000,604
X105 SARlogic_0.dffrs_3.nand3_1.C.t2 SARlogic_0.dffrs_3.nand3_6.C.t5 Vdd.t385 Vdd.t384 pfet_03v3
**devattr s=26000,604 d=44000,1176
X106 a_20971_29984 a_20111_28100 a_20783_29264.t1 Vdd.t29 pfet_03v3
**devattr s=52800,1376 d=31200,704
X107 a_n3065_31515 adc_PISO_0.2inmux_2.Bit.t4 Vss.t34 Vss.t33 nfet_03v3
**devattr s=17600,576 d=10400,304
X108 SARlogic_0.dffrs_12.Q.t3 SARlogic_0.dffrs_12.Qb Vdd.t153 Vdd.t152 pfet_03v3
**devattr s=26000,604 d=44000,1176
X109 SARlogic_0.dffrs_12.nand3_8.Z Vss.t687 Vdd.t11 Vdd.t10 pfet_03v3
**devattr s=26000,604 d=44000,1176
X110 a_4921_30169.t1 adc_PISO_0.2inmux_2.OUT.t2 a_5105_29309 Vss.t148 nfet_03v3
**devattr s=10400,304 d=17600,576
X111 Vdd.t197 a_27321_29020 a_28027_28820.t0 Vdd.t196 pfet_03v3
**devattr s=52800,1376 d=52800,1376
X112 SARlogic_0.dffrs_8.nand3_1.C SARlogic_0.dffrs_8.nand3_6.C.t4 Vdd.t87 Vdd.t86 pfet_03v3
**devattr s=26000,604 d=44000,1176
X113 a_n2881_31515 a_n4631_29217.t4 a_n3065_31515 Vss.t421 nfet_03v3
**devattr s=10400,304 d=10400,304
X114 a_12585_7428 Reset.t8 a_12401_7428 Vss.t322 nfet_03v3
**devattr s=10400,304 d=10400,304
X115 SARlogic_0.dffrs_10.Qb Reset.t9 a_10029_19210 Vss.t323 nfet_03v3
**devattr s=10400,304 d=17600,576
X116 a_17849_29020 inv2_0.out.t5 Vdd.t758 Vdd.t757 pfet_03v3
**devattr s=52800,1376 d=52800,1376
X117 SARlogic_0.dffrs_3.nand3_8.Z.t3 SARlogic_0.dffrs_3.nand3_8.C.t5 Vdd.t521 Vdd.t520 pfet_03v3
**devattr s=44000,1176 d=26000,604
X118 a_4317_17004 SARlogic_0.dffrs_9.nand3_8.C.t4 Vss.t442 Vss.t441 nfet_03v3
**devattr s=17600,576 d=10400,304
X119 Vdd.t423 Reset.t10 SARlogic_0.dffrs_14.nand3_8.Z Vdd.t422 pfet_03v3
**devattr s=26000,604 d=26000,604
X120 SARlogic_0.dffrs_7.nand3_8.C.t3 SARlogic_0.dffrs_7.nand3_6.C.t4 Vdd.t579 Vdd.t578 pfet_03v3
**devattr s=44000,1176 d=26000,604
X121 SARlogic_0.d3.t1 SARlogic_0.dffrs_8.Qb Vdd.t131 Vdd.t130 pfet_03v3
**devattr s=26000,604 d=44000,1176
X122 Vdd.t445 comparator_no_offsetcal_0.no_offsetLatch_0.Vout2.t9 comparator_no_offsetcal_0.no_offsetLatch_0.Vout1.t1 Vdd.t444 pfet_03v3
**devattr s=10400,304 d=10400,304
X123 a_14393_30170.t1 adc_PISO_0.2inmux_3.OUT.t2 Vdd.t267 Vdd.t266 pfet_03v3
**devattr s=26000,604 d=44000,1176
X124 Vdd.t89 SARlogic_0.dffrs_8.nand3_6.C.t5 SARlogic_0.d3.t0 Vdd.t88 pfet_03v3
**devattr s=26000,604 d=26000,604
X125 a_4317_19209 SARlogic_0.dffrs_9.nand3_6.C.t5 Vss.t649 Vss.t648 nfet_03v3
**devattr s=17600,576 d=10400,304
X126 a_459_7428 Reset.t11 a_275_7428 Vss.t324 nfet_03v3
**devattr s=10400,304 d=10400,304
X127 a_n9429_n2007.t18 Vin2.t0 comparator_no_offsetcal_0.no_offsetLatch_0.Vq Vss.t263 nfet_03v3
**devattr s=15600,404 d=15600,404
X128 Vdd.t45 Clk.t2 SARlogic_0.dffrs_5.nand3_8.C.t0 Vdd.t44 pfet_03v3
**devattr s=26000,604 d=26000,604
X129 a_33257_31423.t3 Clk_piso.t0 Vdd.t876 Vdd.t875 pfet_03v3
**devattr s=26000,604 d=44000,1176
X130 adc_PISO_0.2inmux_1.Bit.t3 Vdd.t714 Vdd.t716 Vdd.t715 pfet_03v3
**devattr s=44000,1176 d=26000,604
X131 SARlogic_0.dffrs_8.nand3_6.C.t0 SARlogic_0.dffrs_8.nand3_1.C Vdd.t129 Vdd.t128 pfet_03v3
**devattr s=44000,1176 d=26000,604
X132 SARlogic_0.dffrs_12.Qb Reset.t12 a_18113_19210 Vss.t325 nfet_03v3
**devattr s=10400,304 d=17600,576
X133 a_14313_29218.t1 a_14393_30170.t4 Vdd.t329 Vdd.t328 pfet_03v3
**devattr s=26000,604 d=44000,1176
X134 comparator_no_offsetcal_0.no_offsetLatch_0.Vout2.t1 a_n7971_249 a_n8059_341 Vss.t134 nfet_03v3
**devattr s=35200,976 d=20800,504
X135 SARlogic_0.dffrs_3.nand3_1.C.t3 Vdd.t711 Vdd.t713 Vdd.t712 pfet_03v3
**devattr s=44000,1176 d=26000,604
X136 Vdd.t587 SARlogic_0.dffrs_9.nand3_8.C.t5 SARlogic_0.dffrs_9.Qb Vdd.t586 pfet_03v3
**devattr s=26000,604 d=26000,604
X137 SARlogic_0.dffrs_5.nand3_6.C.t1 Clk.t3 a_12585_11838 Vss.t24 nfet_03v3
**devattr s=10400,304 d=17600,576
X138 Vdd.t425 Reset.t13 SARlogic_0.dffrs_5.nand3_6.C.t2 Vdd.t424 pfet_03v3
**devattr s=26000,604 d=26000,604
X139 Vdd.t387 SARlogic_0.dffrs_3.nand3_6.C.t6 SARlogic_0.dffrs_4.d.t2 Vdd.t386 pfet_03v3
**devattr s=26000,604 d=26000,604
X140 SARlogic_0.dffrs_12.nand3_8.Z SARlogic_0.dffrs_12.nand3_8.C.t5 Vdd.t491 Vdd.t490 pfet_03v3
**devattr s=44000,1176 d=26000,604
X141 SARlogic_0.dffrs_10.nand3_8.Z SAR_in.t1 Vdd.t259 Vdd.t258 pfet_03v3
**devattr s=26000,604 d=44000,1176
X142 a_33257_33628.t1 a_33257_31423.t5 Vdd.t525 Vdd.t524 pfet_03v3
**devattr s=26000,604 d=44000,1176
X143 a_6591_31515 a_4841_29217.t4 a_6407_31515 Vss.t629 nfet_03v3
**devattr s=10400,304 d=10400,304
X144 SARlogic_0.dffrs_8.nand3_1.C SARlogic_0.dffrs_1.Qb.t5 Vdd.t371 Vdd.t370 pfet_03v3
**devattr s=44000,1176 d=26000,604
X145 SARlogic_0.dffrs_14.nand3_6.C.t3 SARlogic_0.d4.t4 a_n7625_21417 Vss.t634 nfet_03v3
**devattr s=10400,304 d=17600,576
X146 a_n6323_21417 SARlogic_0.dffrs_13.Qb.t5 Vss.t587 Vss.t586 nfet_03v3
**devattr s=17600,576 d=10400,304
X147 a_13887_21414 SARlogic_0.dffrs_4.Qb.t4 Vss.t681 Vss.t680 nfet_03v3
**devattr s=17600,576 d=10400,304
X148 Vdd.t289 SARlogic_0.dffrs_10.nand3_6.C.t5 SARlogic_0.d1.t3 Vdd.t288 pfet_03v3
**devattr s=26000,604 d=26000,604
X149 Vdd.t427 Reset.t14 SARlogic_0.dffrs_12.nand3_6.C.t2 Vdd.t426 pfet_03v3
**devattr s=26000,604 d=26000,604
X150 comparator_no_offsetcal_0.no_offsetLatch_0.Vq Vin2.t1 a_n9429_n2007.t19 Vss.t261 nfet_03v3
**devattr s=15600,404 d=15600,404
X151 a_n3583_9633 Clk.t4 a_n3767_9633 Vss.t25 nfet_03v3
**devattr s=10400,304 d=10400,304
X152 a_n6139_9634 SARlogic_0.dffrs_0.nand3_8.C.t4 a_n6323_9634 Vss.t60 nfet_03v3
**devattr s=10400,304 d=10400,304
X153 SARlogic_0.dffrs_8.Qb Reset.t15 a_1945_19210 Vss.t326 nfet_03v3
**devattr s=10400,304 d=17600,576
X154 a_44295_33720 Vdd.t960 Vss.t521 Vss.t520 nfet_03v3
**devattr s=17600,576 d=10400,304
X155 a_n7445_29983 a_n8305_30439 Vdd.t139 Vdd.t138 pfet_03v3
**devattr s=52800,1376 d=31200,704
X156 a_23785_29218.t1 a_23865_30170.t4 a_24049_31515 Vss.t604 nfet_03v3
**devattr s=10400,304 d=17600,576
X157 a_1945_19210 SARlogic_0.dffrs_8.nand3_8.C.t4 a_1761_19210 Vss.t127 nfet_03v3
**devattr s=10400,304 d=10400,304
X158 a_5105_35924 a_4921_30169.t4 a_4921_35924 Vss.t657 nfet_03v3
**devattr s=10400,304 d=10400,304
X159 a_n201_30439 adc_PISO_0.2inmux_2.Bit.t5 Vss.t36 Vss.t35 nfet_03v3
**devattr s=17600,576 d=10400,304
X160 Vdd.t23 SARlogic_0.dffrs_12.nand3_8.Z SARlogic_0.dffrs_12.nand3_1.C Vdd.t22 pfet_03v3
**devattr s=26000,604 d=26000,604
X161 SARlogic_0.dffrs_7.nand3_8.C.t1 SARlogic_0.dffrs_7.nand3_8.Z Vdd.t279 Vdd.t278 pfet_03v3
**devattr s=26000,604 d=44000,1176
X162 a_4501_11838 Reset.t16 a_4317_11838 Vss.t327 nfet_03v3
**devattr s=10400,304 d=10400,304
X163 a_42993_33720 Vdd.t961 a_42809_33720 Vss.t519 nfet_03v3
**devattr s=10400,304 d=10400,304
X164 a_4921_35924 Vdd.t962 Vss.t518 Vss.t517 nfet_03v3
**devattr s=17600,576 d=10400,304
X165 adc_PISO_0.dffrs_4.Qb adc_PISO_0.2inmux_1.Bit.t6 Vdd.t453 Vdd.t452 pfet_03v3
**devattr s=44000,1176 d=26000,604
X166 a_459_14043 SARlogic_0.dffrs_2.nand3_8.Z.t4 a_275_14043 Vss.t200 nfet_03v3
**devattr s=10400,304 d=10400,304
X167 a_28215_30440 adc_PISO_0.dffrs_3.Q.t4 Vss.t445 Vss.t444 nfet_03v3
**devattr s=17600,576 d=10400,304
X168 a_39727_29264.t2 a_39055_28100 a_39915_29984 Vdd.t281 pfet_03v3
**devattr s=31200,704 d=52800,1376
X169 a_8543_21414 Reset.t17 a_8359_21414 Vss.t328 nfet_03v3
**devattr s=10400,304 d=10400,304
X170 a_n7809_9633 SARlogic_0.dffrs_0.nand3_6.C.t5 Vss.t15 Vss.t14 nfet_03v3
**devattr s=17600,576 d=10400,304
X171 comparator_no_offsetcal_0.no_offsetLatch_0.Vq a_n9933_n2099 a_n10021_n2007 Vss.t217 nfet_03v3
**devattr s=26400,776 d=15600,404
X172 SARlogic_0.dffrs_0.nand3_1.C.t3 Vdd.t708 Vdd.t710 Vdd.t709 pfet_03v3
**devattr s=44000,1176 d=26000,604
X173 a_n7809_17007 SARlogic_0.dffrs_14.nand3_8.C.t5 Vss.t274 Vss.t273 nfet_03v3
**devattr s=17600,576 d=10400,304
X174 a_42993_35925 a_42809_30170.t4 a_42809_35925 Vss.t639 nfet_03v3
**devattr s=10400,304 d=10400,304
X175 a_33257_31423.t2 a_33257_33628.t4 Vdd.t820 Vdd.t819 pfet_03v3
**devattr s=44000,1176 d=26000,604
X176 a_28215_28100 SARlogic_0.d1.t6 a_28027_28820.t2 Vss.t429 nfet_03v3
**devattr s=17600,576 d=10400,304
X177 Vdd.t707 Vdd.t705 a_23865_30170.t2 Vdd.t706 pfet_03v3
**devattr s=26000,604 d=26000,604
X178 a_8543_23619 SARlogic_0.dffrs_10.nand3_8.Z a_8359_23619 Vss.t276 nfet_03v3
**devattr s=10400,304 d=10400,304
X179 a_10029_19210 SARlogic_0.dffrs_10.nand3_8.C.t4 a_9845_19210 Vss.t244 nfet_03v3
**devattr s=10400,304 d=10400,304
X180 SARlogic_0.dffrs_10.nand3_8.Z SARlogic_0.dffrs_10.nand3_8.C.t5 Vdd.t319 Vdd.t318 pfet_03v3
**devattr s=44000,1176 d=26000,604
X181 a_33257_33628.t3 Vdd.t702 Vdd.t704 Vdd.t703 pfet_03v3
**devattr s=44000,1176 d=26000,604
X182 Vdd.t878 Clk_piso.t1 a_23785_29218.t3 Vdd.t877 pfet_03v3
**devattr s=26000,604 d=26000,604
X183 SARlogic_0.d5.t2 SARlogic_0.dffrs_14.Qb a_n6139_21417 Vss.t265 nfet_03v3
**devattr s=10400,304 d=17600,576
X184 a_44295_31516 adc_PISO_0.serial_out.t4 Vss.t641 Vss.t640 nfet_03v3
**devattr s=17600,576 d=10400,304
X185 a_n4367_35924 a_n4551_30169.t4 a_n4551_35924 Vss.t226 nfet_03v3
**devattr s=10400,304 d=10400,304
X186 a_n4551_30169.t3 a_n4631_29217.t5 Vdd.t551 Vdd.t550 pfet_03v3
**devattr s=44000,1176 d=26000,604
X187 a_12585_17004 Reset.t18 a_12401_17004 Vss.t329 nfet_03v3
**devattr s=10400,304 d=10400,304
X188 a_40051_37983 adc_PISO_0.serial_out.t5 Vss.t643 Vss.t642 nfet_03v3
**devattr s=9350,280 d=17000,540
X189 a_8377_29020 inv2_0.out.t6 Vss.t552 Vss.t551 nfet_03v3
**devattr s=17600,576 d=17600,576
X190 SARlogic_0.dffrs_0.nand3_8.Z.t3 SARlogic_0.dffrs_0.d.t5 Vdd.t826 Vdd.t825 pfet_03v3
**devattr s=26000,604 d=44000,1176
X191 a_14393_29310 a_14313_29218.t4 Vss.t252 Vss.t251 nfet_03v3
**devattr s=17600,576 d=10400,304
X192 SARlogic_0.dffrs_8.nand3_8.Z SAR_in.t2 Vdd.t261 Vdd.t260 pfet_03v3
**devattr s=26000,604 d=44000,1176
X193 a_12585_19209 SARlogic_0.dffrs_12.Q.t4 a_12401_19209 Vss.t53 nfet_03v3
**devattr s=10400,304 d=10400,304
X194 a_39727_29264.t0 a_39055_28100 Vss.t216 Vss.t215 nfet_03v3
**devattr s=17600,576 d=17600,576
X195 a_11499_29984 a_10639_28100 a_11311_29264.t2 Vdd.t599 pfet_03v3
**devattr s=52800,1376 d=31200,704
X196 a_n6555_341 a_n6755_249 comparator_no_offsetcal_0.no_offsetLatch_0.Vq Vss.t175 nfet_03v3
**devattr s=20800,504 d=35200,976
X197 Vdd.t804 SARlogic_0.dffrs_5.nand3_8.Z.t4 SARlogic_0.dffrs_5.nand3_1.C.t3 Vdd.t803 pfet_03v3
**devattr s=26000,604 d=26000,604
X198 a_n10151_9634 SARlogic_0.dffrs_13.nand3_8.C.t4 a_n10335_9634 Vss.t13 nfet_03v3
**devattr s=10400,304 d=10400,304
X199 SARlogic_0.d2.t2 SARlogic_0.dffrs_9.Qb Vdd.t822 Vdd.t821 pfet_03v3
**devattr s=26000,604 d=44000,1176
X200 adc_PISO_0.2inmux_1.Bit.t1 adc_PISO_0.dffrs_4.Qb a_35007_33720 Vss.t460 nfet_03v3
**devattr s=10400,304 d=17600,576
X201 adc_PISO_0.2inmux_0.OUT.t1 a_n7633_29263.t4 Vdd.t776 Vdd.t775 pfet_03v3
**devattr s=52800,1376 d=52800,1376
X202 SARlogic_0.d4.t2 SARlogic_0.dffrs_0.Qb.t4 Vdd.t229 Vdd.t228 pfet_03v3
**devattr s=44000,1176 d=26000,604
X203 SARlogic_0.dffrs_0.nand3_8.C.t1 SARlogic_0.dffrs_0.nand3_8.Z.t4 Vdd.t125 Vdd.t124 pfet_03v3
**devattr s=26000,604 d=44000,1176
X204 a_36793_29020 inv2_0.out.t7 Vdd.t760 Vdd.t759 pfet_03v3
**devattr s=52800,1376 d=52800,1376
X205 Vdd.t569 comparator_no_offsetcal_0.no_offsetLatch_0.Vout1.t10 comparator_no_offsetcal_0.no_offsetLatch_0.Vout2.t7 Vdd.t568 pfet_03v3
**devattr s=10400,304 d=10400,304
X206 SARlogic_0.dffrs_14.nand3_1.C SARlogic_0.dffrs_14.nand3_6.C.t5 Vdd.t379 Vdd.t378 pfet_03v3
**devattr s=26000,604 d=44000,1176
X207 SARlogic_0.dffrs_5.nand3_8.Z.t0 SARlogic_0.dffrs_4.Q.t4 Vdd.t225 Vdd.t224 pfet_03v3
**devattr s=26000,604 d=44000,1176
X208 a_n9429_n2007.t20 Vin2.t2 comparator_no_offsetcal_0.no_offsetLatch_0.Vq Vss.t262 nfet_03v3
**devattr s=15600,404 d=15600,404
X209 SARlogic_0.dffrs_0.nand3_6.C.t2 Clk.t5 Vdd.t47 Vdd.t46 pfet_03v3
**devattr s=26000,604 d=44000,1176
X210 a_n4551_30169.t0 adc_PISO_0.2inmux_0.OUT.t2 Vdd.t199 Vdd.t198 pfet_03v3
**devattr s=26000,604 d=44000,1176
X211 SARlogic_0.dffrs_0.Q.t1 Vdd.t699 Vdd.t701 Vdd.t700 pfet_03v3
**devattr s=44000,1176 d=26000,604
X212 adc_PISO_0.dffrs_3.Q.t3 Vdd.t696 Vdd.t698 Vdd.t697 pfet_03v3
**devattr s=44000,1176 d=26000,604
X213 a_18555_28820.t3 SARlogic_0.d2.t6 Vdd.t309 Vdd.t308 pfet_03v3
**devattr s=52800,1376 d=52800,1376
X214 a_18113_21414 SARlogic_0.dffrs_12.nand3_6.C.t5 a_17929_21414 Vss.t266 nfet_03v3
**devattr s=10400,304 d=10400,304
X215 a_23785_31423.t3 Clk_piso.t2 Vdd.t880 Vdd.t879 pfet_03v3
**devattr s=26000,604 d=44000,1176
X216 SARlogic_0.dffrs_13.nand3_8.Z.t1 Vss.t100 a_n11637_7428 Vss.t101 nfet_03v3
**devattr s=10400,304 d=17600,576
X217 comparator_no_offsetcal_0.x4.A comparator_no_offsetcal_0.x2.Vout2 Vdd.t331 Vdd.t330 pfet_03v3
**devattr s=17600,576 d=17600,576
X218 SARlogic_0.dffrs_8.nand3_8.Z SARlogic_0.dffrs_8.nand3_8.C.t5 Vdd.t187 Vdd.t186 pfet_03v3
**devattr s=44000,1176 d=26000,604
X219 comparator_no_offsetcal_0.x4.A comparator_no_offsetcal_0.x3.out Vss.t287 Vss.t286 nfet_03v3
**devattr s=17600,576 d=17600,576
X220 SARlogic_0.dffrs_12.nand3_6.C.t0 Vss.t98 a_16627_21414 Vss.t99 nfet_03v3
**devattr s=10400,304 d=17600,576
X221 a_n3767_9633 SARlogic_0.dffrs_1.nand3_6.C.t4 Vss.t103 Vss.t102 nfet_03v3
**devattr s=17600,576 d=10400,304
X222 Vdd.t527 a_33257_31423.t6 adc_PISO_0.2inmux_1.Bit.t0 Vdd.t526 pfet_03v3
**devattr s=26000,604 d=26000,604
X223 SARlogic_0.dffrs_9.Qb Reset.t19 a_5987_19210 Vss.t330 nfet_03v3
**devattr s=10400,304 d=17600,576
X224 a_23785_33628.t0 a_23785_31423.t5 Vdd.t239 Vdd.t238 pfet_03v3
**devattr s=26000,604 d=44000,1176
X225 Vdd.t429 Reset.t20 SARlogic_0.dffrs_8.nand3_6.C.t1 Vdd.t428 pfet_03v3
**devattr s=26000,604 d=26000,604
X226 SARlogic_0.dffrs_14.Qb SARlogic_0.d5.t4 Vdd.t299 Vdd.t298 pfet_03v3
**devattr s=44000,1176 d=26000,604
X227 a_n2281_19210 SARlogic_0.d4.t5 Vss.t636 Vss.t635 nfet_03v3
**devattr s=17600,576 d=10400,304
X228 a_n3583_14043 SARlogic_0.dffrs_1.nand3_8.Z.t4 a_n3767_14043 Vss.t147 nfet_03v3
**devattr s=10400,304 d=10400,304
X229 a_n7633_29263.t3 a_n8305_28099 a_n7445_29983 Vdd.t323 pfet_03v3
**devattr s=31200,704 d=52800,1376
X230 SARlogic_0.dffrs_2.nand3_8.Z.t0 SARlogic_0.dffrs_2.d.t4 Vdd.t39 Vdd.t38 pfet_03v3
**devattr s=26000,604 d=44000,1176
X231 SARlogic_0.dffrs_12.nand3_1.C SARlogic_0.dffrs_12.nand3_6.C.t6 a_16627_23619 Vss.t267 nfet_03v3
**devattr s=10400,304 d=17600,576
X232 SARlogic_0.dffrs_11.Qb SARlogic_0.d0.t5 Vdd.t946 Vdd.t945 pfet_03v3
**devattr s=44000,1176 d=26000,604
X233 adc_PISO_0.dffrs_4.Qb Vdd.t963 a_35007_31516 Vss.t516 nfet_03v3
**devattr s=10400,304 d=17600,576
X234 SARlogic_0.dffrs_5.Q.t3 Vdd.t693 Vdd.t695 Vdd.t694 pfet_03v3
**devattr s=44000,1176 d=26000,604
X235 Vdd.t431 Reset.t21 SARlogic_0.dffrs_12.nand3_8.Z Vdd.t430 pfet_03v3
**devattr s=26000,604 d=26000,604
X236 a_n389_31159.t1 inv2_0.out.t8 Vdd.t762 Vdd.t761 pfet_03v3
**devattr s=52800,1376 d=52800,1376
X237 a_n7625_21417 Reset.t22 a_n7809_21417 Vss.t331 nfet_03v3
**devattr s=10400,304 d=10400,304
X238 Vdd.t327 SARlogic_0.dffrs_8.nand3_8.Z SARlogic_0.dffrs_8.nand3_1.C Vdd.t326 pfet_03v3
**devattr s=26000,604 d=26000,604
X239 adc_PISO_0.dffrs_0.Qb Vdd.t964 a_n2881_31515 Vss.t515 nfet_03v3
**devattr s=10400,304 d=17600,576
X240 a_1761_21414 SARlogic_0.dffrs_1.Qb.t6 Vss.t289 Vss.t288 nfet_03v3
**devattr s=17600,576 d=10400,304
X241 a_n10567_29019 inv2_0.out.t9 Vss.t554 Vss.t553 nfet_03v3
**devattr s=17600,576 d=17600,576
X242 a_n201_28099 SARlogic_0.d4.t6 a_n389_28819.t3 Vss.t637 nfet_03v3
**devattr s=17600,576 d=10400,304
X243 SARlogic_0.dffrs_12.Q.t1 SARlogic_0.dffrs_5.Qb.t5 Vdd.t848 Vdd.t847 pfet_03v3
**devattr s=44000,1176 d=26000,604
X244 a_n11821_14043 Reset.t23 Vss.t333 Vss.t332 nfet_03v3
**devattr s=17600,576 d=10400,304
X245 a_33521_33720 Vdd.t965 a_33337_33720 Vss.t514 nfet_03v3
**devattr s=10400,304 d=10400,304
X246 Vdd.t49 Clk.t6 SARlogic_0.dffrs_4.nand3_8.C.t0 Vdd.t48 pfet_03v3
**devattr s=26000,604 d=26000,604
X247 SARlogic_0.dffrs_1.nand3_8.Z.t2 SARlogic_0.dffrs_0.Q.t4 Vdd.t774 Vdd.t773 pfet_03v3
**devattr s=26000,604 d=44000,1176
X248 SARlogic_0.dffrs_0.Q.t3 SARlogic_0.dffrs_0.Qb.t5 Vdd.t231 Vdd.t230 pfet_03v3
**devattr s=26000,604 d=44000,1176
X249 adc_PISO_0.dffrs_3.Qb adc_PISO_0.dffrs_3.Q.t5 Vdd.t591 Vdd.t590 pfet_03v3
**devattr s=44000,1176 d=26000,604
X250 a_30255_29264.t3 a_29583_28100 a_30443_29984 Vdd.t249 pfet_03v3
**devattr s=31200,704 d=52800,1376
X251 a_5803_11838 Vdd.t966 Vss.t513 Vss.t512 nfet_03v3
**devattr s=17600,576 d=10400,304
X252 a_4841_33627.t1 a_4841_31422.t5 a_5105_35924 Vss.t359 nfet_03v3
**devattr s=10400,304 d=17600,576
X253 a_1839_29263.t3 a_1167_28099 a_2027_29983 Vdd.t283 pfet_03v3
**devattr s=31200,704 d=52800,1376
X254 a_12401_11838 SARlogic_0.dffrs_5.nand3_1.C.t5 Vss.t300 Vss.t299 nfet_03v3
**devattr s=17600,576 d=10400,304
X255 SARlogic_0.dffrs_3.nand3_6.C.t2 Clk.t7 a_4501_11838 Vss.t26 nfet_03v3
**devattr s=10400,304 d=17600,576
X256 Vdd.t433 Reset.t24 SARlogic_0.dffrs_4.nand3_6.C.t0 Vdd.t432 pfet_03v3
**devattr s=26000,604 d=26000,604
X257 a_33521_35925 a_33337_30170.t6 a_33337_35925 Vss.t385 nfet_03v3
**devattr s=10400,304 d=10400,304
X258 a_42809_30170.t2 adc_PISO_0.2inmux_1.OUT.t2 Vdd.t834 Vdd.t833 pfet_03v3
**devattr s=26000,604 d=44000,1176
X259 inv2_0.out.t0 Load.t0 Vss.t116 Vss.t115 nfet_03v3
**devattr s=17600,576 d=17600,576
X260 Vdd.t692 Vdd.t690 a_14393_30170.t3 Vdd.t691 pfet_03v3
**devattr s=26000,604 d=26000,604
X261 Comp_out.t3 a_n10831_4320 Vss.t543 Vss.t542 nfet_03v3
**devattr s=17000,540 d=9350,280
X262 Vdd.t808 a_33257_29218.t4 adc_PISO_0.dffrs_4.Qb Vdd.t807 pfet_03v3
**devattr s=26000,604 d=26000,604
X263 SARlogic_0.dffrs_11.nand3_8.C.t2 SARlogic_0.dffrs_11.nand3_8.Z Vdd.t173 Vdd.t172 pfet_03v3
**devattr s=26000,604 d=44000,1176
X264 SARlogic_0.dffrs_10.nand3_6.C.t2 SARlogic_0.d0.t6 a_8543_21414 Vss.t682 nfet_03v3
**devattr s=10400,304 d=17600,576
X265 a_9845_21414 SARlogic_0.dffrs_3.Qb.t6 Vss.t120 Vss.t119 nfet_03v3
**devattr s=17600,576 d=10400,304
X266 a_16443_21414 SARlogic_0.dffrs_12.nand3_1.C Vss.t631 Vss.t630 nfet_03v3
**devattr s=17600,576 d=10400,304
X267 a_42729_29218.t1 a_42809_30170.t5 Vdd.t896 Vdd.t895 pfet_03v3
**devattr s=26000,604 d=44000,1176
X268 Piso_out.t6 a_40051_37983 Vdd.t547 Vdd.t546 pfet_03v3
**devattr s=18700,450 d=18700,450
X269 a_8359_7428 SARlogic_0.dffrs_4.nand3_8.C.t6 Vss.t352 Vss.t351 nfet_03v3
**devattr s=17600,576 d=10400,304
X270 Vdd.t882 Clk_piso.t3 a_14313_29218.t3 Vdd.t881 pfet_03v3
**devattr s=26000,604 d=26000,604
X271 SARlogic_0.dffrs_14.Qb Reset.t25 Vdd.t435 Vdd.t434 pfet_03v3
**devattr s=26000,604 d=44000,1176