* NGSPICE file created from SARlogic.ext - technology: (null)

.subckt SARlogic vdd vss clk reset comp_in d5 d4 d3 d2 d1 d0
X0 dffrs_5.Qb.t1 reset.t0 a_26858_2649 vss.t304 nfet_03v3
**devattr s=10400,304 d=17600,576
X1 a_1150_7058 dffrs_13.nand3_8.Z.t4 a_966_7058 vss.t45 nfet_03v3
**devattr s=10400,304 d=10400,304
X2 vdd.t67 dffrs_12.nand3_8.Z dffrs_12.nand3_1.C vdd.t66 pfet_03v3
**devattr s=26000,604 d=26000,604
X3 dffrs_5.nand3_1.C.t1 dffrs_5.nand3_6.C.t4 a_25372_7058 vss.t216 nfet_03v3
**devattr s=10400,304 d=17600,576
X4 a_14732_12225 dffrs_8.nand3_8.C.t4 a_14548_12225 vss.t48 nfet_03v3
**devattr s=10400,304 d=10400,304
X5 dffrs_10.nand3_8.C.t1 dffrs_10.nand3_8.Z a_21330_12224 vss.t192 nfet_03v3
**devattr s=10400,304 d=17600,576
X6 vdd.t158 dffrs_12.Q.t4 dffrs_11.nand3_8.C.t0 vdd.t157 pfet_03v3
**devattr s=26000,604 d=26000,604
X7 a_9020_4853 dffrs_1.nand3_1.C.t4 vss.t115 vss.t114 nfet_03v3
**devattr s=17600,576 d=10400,304
X8 d2.t2 dffrs_2.Qb.t4 vdd.t178 vdd.t177 pfet_03v3
**devattr s=44000,1176 d=26000,604
X9 a_18774_14429 dffrs_9.nand3_6.C.t4 a_18590_14429 vss.t218 nfet_03v3
**devattr s=10400,304 d=10400,304
X10 dffrs_10.nand3_6.C.t1 d0.t4 a_21330_14429 vss.t226 nfet_03v3
**devattr s=10400,304 d=17600,576
X11 a_22632_14429 dffrs_3.Qb.t4 vss.t308 vss.t307 nfet_03v3
**devattr s=17600,576 d=10400,304
X12 vdd.t454 reset.t1 dffrs_11.nand3_6.C.t3 vdd.t453 pfet_03v3
**devattr s=26000,604 d=26000,604
X13 dffrs_4.nand3_6.C.t1 clk.t0 a_21330_4853 vss.t92 nfet_03v3
**devattr s=10400,304 d=17600,576
X14 a_13246_16634 dffrs_8.nand3_8.Z a_13062_16634 vss.t178 nfet_03v3
**devattr s=10400,304 d=10400,304
X15 a_13062_16634 dffrs_1.Qb.t4 vss.t117 vss.t116 nfet_03v3
**devattr s=17600,576 d=10400,304
X16 dffrs_12.nand3_8.C.t0 dffrs_12.nand3_8.Z a_29414_12224 vss.t54 nfet_03v3
**devattr s=10400,304 d=17600,576
X17 a_6648_14432 dffrs_14.nand3_6.C.t4 a_6464_14432 vss.t134 nfet_03v3
**devattr s=10400,304 d=10400,304
X18 dffrs_13.nand3_6.C.t1 clk.t1 a_1150_4853 vss.t93 nfet_03v3
**devattr s=10400,304 d=17600,576
X19 dffrs_12.nand3_6.C.t1 vss.t214 a_29414_14429 vss.t215 nfet_03v3
**devattr s=10400,304 d=17600,576
X20 dffrs_4.Q.t3 dffrs_4.Qb.t4 a_22816_4853 vss.t11 nfet_03v3
**devattr s=10400,304 d=17600,576
X21 a_25188_16634 dffrs_4.Qb.t5 vss.t13 vss.t12 nfet_03v3
**devattr s=17600,576 d=10400,304
X22 dffrs_11.nand3_8.Z comp_in.t0 a_25372_10019 vss.t231 nfet_03v3
**devattr s=10400,304 d=17600,576
X23 a_21146_12224 dffrs_10.nand3_6.C.t4 vss.t322 vss.t321 nfet_03v3
**devattr s=17600,576 d=10400,304
X24 dffrs_7.nand3_8.C.t0 dffrs_7.nand3_8.Z vdd.t49 vdd.t48 pfet_03v3
**devattr s=26000,604 d=44000,1176
X25 dffrs_0.d.t0 dffrs_13.Qb.t4 a_2636_4853 vss.t242 nfet_03v3
**devattr s=10400,304 d=17600,576
X26 dffrs_9.nand3_8.C.t3 dffrs_9.nand3_6.C.t5 vdd.t320 vdd.t319 pfet_03v3
**devattr s=44000,1176 d=26000,604
X27 vdd.t138 dffrs_0.nand3_6.C.t4 dffrs_0.Q.t2 vdd.t137 pfet_03v3
**devattr s=26000,604 d=26000,604
X28 dffrs_7.nand3_6.C.t0 d3.t4 vdd.t350 vdd.t349 pfet_03v3
**devattr s=26000,604 d=44000,1176
X29 dffrs_9.nand3_6.C.t0 dffrs_9.nand3_1.C vdd.t63 vdd.t62 pfet_03v3
**devattr s=44000,1176 d=26000,604
X30 a_21146_14429 dffrs_10.nand3_1.C vss.t32 vss.t31 nfet_03v3
**devattr s=17600,576 d=10400,304
X31 dffrs_5.Q.t1 vdd.t126 vdd.t128 vdd.t127 pfet_03v3
**devattr s=44000,1176 d=26000,604
X32 dffrs_2.nand3_6.C.t0 clk.t2 vdd.t166 vdd.t165 pfet_03v3
**devattr s=26000,604 d=44000,1176
X33 dffrs_1.nand3_6.C.t0 clk.t3 vdd.t482 vdd.t481 pfet_03v3
**devattr s=26000,604 d=44000,1176
X34 a_966_443 dffrs_13.nand3_8.C.t4 vss.t1 vss.t0 nfet_03v3
**devattr s=17600,576 d=10400,304
X35 a_6648_12228 dffrs_14.nand3_8.C.t4 a_6464_12228 vss.t207 nfet_03v3
**devattr s=10400,304 d=10400,304
X36 dffrs_0.nand3_8.Z.t1 dffrs_0.d.t4 vdd.t152 vdd.t151 pfet_03v3
**devattr s=26000,604 d=44000,1176
X37 dffrs_2.nand3_1.C.t2 dffrs_2.nand3_6.C.t4 vdd.t9 vdd.t8 pfet_03v3
**devattr s=26000,604 d=44000,1176
X38 dffrs_4.Qb.t1 reset.t2 a_22816_2649 vss.t303 nfet_03v3
**devattr s=10400,304 d=17600,576
X39 vdd.t452 reset.t3 dffrs_3.nand3_8.Z.t3 vdd.t451 pfet_03v3
**devattr s=26000,604 d=26000,604
X40 dffrs_1.nand3_1.C.t3 dffrs_1.nand3_6.C.t4 vdd.t458 vdd.t457 pfet_03v3
**devattr s=26000,604 d=44000,1176
X41 vdd.t450 reset.t4 dffrs_5.nand3_8.Z.t3 vdd.t449 pfet_03v3
**devattr s=26000,604 d=26000,604
X42 a_4978_14432 dffrs_14.nand3_1.C vss.t66 vss.t65 nfet_03v3
**devattr s=17600,576 d=10400,304
X43 a_9020_7058 vdd.t519 vss.t183 vss.t182 nfet_03v3
**devattr s=17600,576 d=10400,304
X44 dffrs_0.nand3_8.C.t1 dffrs_0.nand3_8.Z.t4 vdd.t366 vdd.t365 pfet_03v3
**devattr s=26000,604 d=44000,1176
X45 a_17288_10019 reset.t5 a_17104_10019 vss.t302 nfet_03v3
**devattr s=10400,304 d=10400,304
X46 dffrs_13.Qb.t2 vdd.t520 a_2636_2649 vss.t184 nfet_03v3
**devattr s=10400,304 d=17600,576
X47 vdd.t484 clk.t4 dffrs_3.nand3_8.C.t3 vdd.t483 pfet_03v3
**devattr s=26000,604 d=26000,604
X48 a_4978_4853 dffrs_0.nand3_1.C.t4 vss.t237 vss.t236 nfet_03v3
**devattr s=17600,576 d=10400,304
X49 dffrs_10.Qb reset.t6 vdd.t448 vdd.t447 pfet_03v3
**devattr s=26000,604 d=44000,1176
X50 dffrs_12.Q.t1 dffrs_12.Qb vdd.t270 vdd.t269 pfet_03v3
**devattr s=26000,604 d=44000,1176
X51 vdd.t486 clk.t5 dffrs_5.nand3_8.C.t1 vdd.t485 pfet_03v3
**devattr s=26000,604 d=26000,604
X52 dffrs_4.nand3_1.C.t0 dffrs_4.nand3_6.C.t4 a_21330_7058 vss.t133 nfet_03v3
**devattr s=10400,304 d=17600,576
X53 a_4978_16637 dffrs_13.Qb.t5 vss.t77 vss.t76 nfet_03v3
**devattr s=17600,576 d=10400,304
X54 vdd.t188 dffrs_0.nand3_8.C.t4 dffrs_0.Qb.t0 vdd.t187 pfet_03v3
**devattr s=26000,604 d=26000,604
X55 vdd.t170 dffrs_12.nand3_6.C.t4 dffrs_12.Q.t0 vdd.t169 pfet_03v3
**devattr s=26000,604 d=26000,604
X56 dffrs_5.nand3_8.Z.t1 dffrs_4.Q.t4 a_25372_443 vss.t71 nfet_03v3
**devattr s=10400,304 d=17600,576
X57 d0.t0 dffrs_11.Qb vdd.t3 vdd.t2 pfet_03v3
**devattr s=26000,604 d=44000,1176
X58 dffrs_5.Qb.t0 dffrs_5.Q.t4 vdd.t21 vdd.t20 pfet_03v3
**devattr s=44000,1176 d=26000,604
X59 dffrs_13.nand3_1.C.t0 dffrs_13.nand3_6.C.t4 a_1150_7058 vss.t7 nfet_03v3
**devattr s=10400,304 d=17600,576
X60 dffrs_10.nand3_1.C dffrs_10.nand3_6.C.t5 vdd.t468 vdd.t467 pfet_03v3
**devattr s=26000,604 d=44000,1176
X61 a_21330_443 reset.t7 a_21146_443 vss.t301 nfet_03v3
**devattr s=10400,304 d=10400,304
X62 vdd.t456 dffrs_7.nand3_6.C.t4 d4.t3 vdd.t455 pfet_03v3
**devattr s=26000,604 d=26000,604
X63 d4.t1 dffrs_7.Qb a_10690_14429 vss.t36 nfet_03v3
**devattr s=10400,304 d=17600,576
X64 a_9020_443 dffrs_1.nand3_8.C.t4 vss.t82 vss.t81 nfet_03v3
**devattr s=17600,576 d=10400,304
X65 dffrs_1.nand3_8.Z.t3 dffrs_0.Q.t4 a_9204_443 vss.t199 nfet_03v3
**devattr s=10400,304 d=17600,576
X66 dffrs_12.nand3_1.C dffrs_12.nand3_6.C.t5 vdd.t504 vdd.t503 pfet_03v3
**devattr s=26000,604 d=44000,1176
X67 dffrs_4.nand3_6.C.t2 dffrs_4.nand3_1.C.t4 vdd.t244 vdd.t243 pfet_03v3
**devattr s=44000,1176 d=26000,604
X68 dffrs_8.Qb reset.t8 a_14732_12225 vss.t300 nfet_03v3
**devattr s=10400,304 d=17600,576
X69 dffrs_10.Qb d1.t4 vdd.t246 vdd.t245 pfet_03v3
**devattr s=44000,1176 d=26000,604
X70 vdd.t446 reset.t9 dffrs_8.nand3_8.Z vdd.t445 pfet_03v3
**devattr s=26000,604 d=26000,604
X71 dffrs_11.nand3_8.C.t3 dffrs_11.nand3_8.Z vdd.t274 vdd.t273 pfet_03v3
**devattr s=26000,604 d=44000,1176
X72 vdd.t73 dffrs_9.nand3_8.C.t4 dffrs_9.Qb vdd.t72 pfet_03v3
**devattr s=26000,604 d=26000,604
X73 dffrs_4.nand3_1.C.t2 vdd.t123 vdd.t125 vdd.t124 pfet_03v3
**devattr s=44000,1176 d=26000,604
X74 dffrs_8.nand3_8.Z dffrs_8.nand3_8.C.t5 vdd.t61 vdd.t60 pfet_03v3
**devattr s=44000,1176 d=26000,604
X75 d0.t2 dffrs_4.Qb.t6 vdd.t13 vdd.t12 pfet_03v3
**devattr s=44000,1176 d=26000,604
X76 d2.t0 dffrs_9.Qb a_18774_14429 vss.t30 nfet_03v3
**devattr s=10400,304 d=17600,576
X77 a_22816_14429 dffrs_10.nand3_6.C.t6 a_22632_14429 vss.t314 nfet_03v3
**devattr s=10400,304 d=10400,304
X78 dffrs_11.nand3_6.C.t1 dffrs_12.Q.t5 vdd.t77 vdd.t76 pfet_03v3
**devattr s=26000,604 d=44000,1176
X79 a_18774_4853 dffrs_3.nand3_6.C.t4 a_18590_4853 vss.t8 nfet_03v3
**devattr s=10400,304 d=10400,304
X80 a_29230_16634 dffrs_5.Qb.t4 vss.t250 vss.t249 nfet_03v3
**devattr s=17600,576 d=10400,304
X81 dffrs_4.Q.t1 vdd.t120 vdd.t122 vdd.t121 pfet_03v3
**devattr s=44000,1176 d=26000,604
X82 dffrs_10.nand3_1.C dffrs_3.Qb.t5 vdd.t464 vdd.t463 pfet_03v3
**devattr s=44000,1176 d=26000,604
X83 a_25188_443 dffrs_5.nand3_8.C.t4 vss.t339 vss.t338 nfet_03v3
**devattr s=17600,576 d=10400,304
X84 dffrs_11.nand3_8.Z dffrs_11.nand3_8.C.t4 vdd.t474 vdd.t473 pfet_03v3
**devattr s=44000,1176 d=26000,604
X85 a_9204_2648 clk.t6 a_9020_2648 vss.t323 nfet_03v3
**devattr s=10400,304 d=10400,304
X86 dffrs_2.d.t2 dffrs_1.Qb.t5 vdd.t204 vdd.t203 pfet_03v3
**devattr s=26000,604 d=44000,1176
X87 dffrs_0.d.t3 reset.t10 vdd.t444 vdd.t443 pfet_03v3
**devattr s=44000,1176 d=26000,604
X88 a_4978_7058 vdd.t521 vss.t186 vss.t185 nfet_03v3
**devattr s=17600,576 d=10400,304
X89 vdd.t442 reset.t11 dffrs_4.nand3_8.Z.t3 vdd.t441 pfet_03v3
**devattr s=26000,604 d=26000,604
X90 vdd.t314 dffrs_5.nand3_6.C.t5 dffrs_5.Q.t0 vdd.t313 pfet_03v3
**devattr s=26000,604 d=26000,604
X91 dffrs_13.nand3_6.C.t3 dffrs_13.nand3_1.C.t4 vdd.t264 vdd.t263 pfet_03v3
**devattr s=44000,1176 d=26000,604
X92 dffrs_3.nand3_8.C.t2 dffrs_3.nand3_8.Z.t4 a_17288_2648 vss.t197 nfet_03v3
**devattr s=10400,304 d=17600,576
X93 vdd.t119 vdd.t117 dffrs_13.nand3_8.Z.t1 vdd.t118 pfet_03v3
**devattr s=26000,604 d=26000,604
X94 a_14548_12225 d3.t5 vss.t244 vss.t243 nfet_03v3
**devattr s=17600,576 d=10400,304
X95 vdd.t254 d1.t5 dffrs_9.nand3_8.C.t2 vdd.t253 pfet_03v3
**devattr s=26000,604 d=26000,604
X96 vdd.t488 clk.t7 dffrs_4.nand3_8.C.t1 vdd.t487 pfet_03v3
**devattr s=26000,604 d=26000,604
X97 a_18774_2649 dffrs_3.nand3_8.C.t4 a_18590_2649 vss.t161 nfet_03v3
**devattr s=10400,304 d=10400,304
X98 dffrs_13.nand3_1.C.t3 reset.t12 vdd.t440 vdd.t439 pfet_03v3
**devattr s=44000,1176 d=26000,604
X99 dffrs_5.nand3_8.Z.t2 dffrs_4.Q.t5 vdd.t136 vdd.t135 pfet_03v3
**devattr s=26000,604 d=44000,1176
X100 vdd.t438 reset.t13 dffrs_9.nand3_6.C.t3 vdd.t437 pfet_03v3
**devattr s=26000,604 d=26000,604
X101 dffrs_4.Qb.t0 dffrs_4.Q.t6 vdd.t134 vdd.t133 pfet_03v3
**devattr s=44000,1176 d=26000,604
X102 vdd.t490 clk.t8 dffrs_13.nand3_8.C.t0 vdd.t489 pfet_03v3
**devattr s=26000,604 d=26000,604
X103 dffrs_5.nand3_8.C.t2 dffrs_5.nand3_8.Z.t4 vdd.t284 vdd.t283 pfet_03v3
**devattr s=26000,604 d=44000,1176
X104 dffrs_13.Qb.t3 dffrs_0.d.t5 vdd.t498 vdd.t497 pfet_03v3
**devattr s=44000,1176 d=26000,604
X105 a_9204_12224 d3.t6 a_9020_12224 vss.t245 nfet_03v3
**devattr s=10400,304 d=10400,304
X106 dffrs_1.Qb.t1 reset.t14 vdd.t436 vdd.t435 pfet_03v3
**devattr s=26000,604 d=44000,1176
X107 a_9020_12224 dffrs_7.nand3_6.C.t5 vss.t4 vss.t3 nfet_03v3
**devattr s=17600,576 d=10400,304
X108 vdd.t518 dffrs_5.nand3_8.C.t5 dffrs_5.Qb.t3 vdd.t517 pfet_03v3
**devattr s=26000,604 d=26000,604
X109 a_9204_14429 reset.t15 a_9020_14429 vss.t299 nfet_03v3
**devattr s=10400,304 d=10400,304
X110 a_13246_4853 reset.t16 a_13062_4853 vss.t298 nfet_03v3
**devattr s=10400,304 d=10400,304
X111 a_9020_14429 dffrs_7.nand3_1.C vss.t254 vss.t253 nfet_03v3
**devattr s=17600,576 d=10400,304
X112 a_14732_4853 dffrs_2.nand3_6.C.t5 a_14548_4853 vss.t6 nfet_03v3
**devattr s=10400,304 d=10400,304
X113 dffrs_7.Qb reset.t17 vdd.t434 vdd.t433 pfet_03v3
**devattr s=26000,604 d=44000,1176
X114 dffrs_4.d.t0 dffrs_3.Qb.t6 a_18774_4853 vss.t309 nfet_03v3
**devattr s=10400,304 d=17600,576
X115 dffrs_9.nand3_1.C dffrs_9.nand3_6.C.t6 a_17288_16634 vss.t219 nfet_03v3
**devattr s=10400,304 d=17600,576
X116 a_21330_16634 dffrs_10.nand3_8.Z a_21146_16634 vss.t191 nfet_03v3
**devattr s=10400,304 d=10400,304
X117 vdd.t216 dffrs_4.nand3_6.C.t5 dffrs_4.Q.t0 vdd.t215 pfet_03v3
**devattr s=26000,604 d=26000,604
X118 vdd.t432 reset.t18 dffrs_14.nand3_8.Z vdd.t431 pfet_03v3
**devattr s=26000,604 d=26000,604
X119 dffrs_2.nand3_8.C.t3 dffrs_2.nand3_8.Z.t4 a_13246_2648 vss.t312 nfet_03v3
**devattr s=10400,304 d=17600,576
X120 dffrs_9.Qb reset.t19 vdd.t430 vdd.t429 pfet_03v3
**devattr s=26000,604 d=44000,1176
X121 vdd.t154 dffrs_10.nand3_8.C.t4 dffrs_10.Qb vdd.t153 pfet_03v3
**devattr s=26000,604 d=26000,604
X122 dffrs_12.nand3_8.Z dffrs_12.nand3_8.C.t4 vdd.t212 vdd.t211 pfet_03v3
**devattr s=44000,1176 d=26000,604
X123 dffrs_1.nand3_8.C.t1 dffrs_1.nand3_8.Z.t4 a_9204_2648 vss.t166 nfet_03v3
**devattr s=10400,304 d=17600,576
X124 vdd.t11 dffrs_13.nand3_6.C.t5 dffrs_0.d.t2 vdd.t10 pfet_03v3
**devattr s=26000,604 d=26000,604
X125 dffrs_1.nand3_8.Z.t0 dffrs_1.nand3_8.C.t5 vdd.t184 vdd.t183 pfet_03v3
**devattr s=44000,1176 d=26000,604
X126 a_14732_2649 dffrs_2.nand3_8.C.t4 a_14548_2649 vss.t85 nfet_03v3
**devattr s=10400,304 d=10400,304
X127 dffrs_4.nand3_8.Z.t1 dffrs_4.d.t4 vdd.t230 vdd.t229 pfet_03v3
**devattr s=26000,604 d=44000,1176
X128 dffrs_12.Q.t3 dffrs_5.Qb.t5 vdd.t356 vdd.t355 pfet_03v3
**devattr s=44000,1176 d=26000,604
X129 vdd.t196 dffrs_11.nand3_6.C.t4 d0.t3 vdd.t195 pfet_03v3
**devattr s=26000,604 d=26000,604
X130 dffrs_1.nand3_8.C.t3 dffrs_1.nand3_6.C.t5 vdd.t460 vdd.t459 pfet_03v3
**devattr s=44000,1176 d=26000,604
X131 a_29414_16634 dffrs_12.nand3_8.Z a_29230_16634 vss.t53 nfet_03v3
**devattr s=10400,304 d=10400,304
X132 a_25372_12224 dffrs_12.Q.t6 a_25188_12224 vss.t58 nfet_03v3
**devattr s=10400,304 d=10400,304
X133 a_13246_7058 dffrs_2.nand3_8.Z.t5 a_13062_7058 vss.t313 nfet_03v3
**devattr s=10400,304 d=10400,304
X134 dffrs_13.nand3_8.Z.t2 vss.t340 vdd.t312 vdd.t311 pfet_03v3
**devattr s=26000,604 d=44000,1176
X135 dffrs_4.nand3_8.C.t2 dffrs_4.nand3_8.Z.t4 vdd.t358 vdd.t357 pfet_03v3
**devattr s=26000,604 d=44000,1176
X136 dffrs_3.Qb.t3 reset.t20 a_18774_2649 vss.t297 nfet_03v3
**devattr s=10400,304 d=17600,576
X137 vdd.t480 dffrs_4.nand3_8.C.t4 dffrs_4.Qb.t3 vdd.t479 pfet_03v3
**devattr s=26000,604 d=26000,604
X138 a_18590_14429 dffrs_2.Qb.t5 vss.t104 vss.t103 nfet_03v3
**devattr s=17600,576 d=10400,304
X139 d4.t2 dffrs_0.Qb.t4 vdd.t69 vdd.t68 pfet_03v3
**devattr s=44000,1176 d=26000,604
X140 dffrs_13.nand3_8.C.t2 dffrs_13.nand3_8.Z.t5 vdd.t258 vdd.t257 pfet_03v3
**devattr s=26000,604 d=44000,1176
X141 a_25372_14429 reset.t21 a_25188_14429 vss.t296 nfet_03v3
**devattr s=10400,304 d=10400,304
X142 dffrs_8.nand3_8.Z comp_in.t1 a_13246_10019 vss.t232 nfet_03v3
**devattr s=10400,304 d=17600,576
X143 vdd.t47 dffrs_7.nand3_8.Z dffrs_7.nand3_1.C vdd.t46 pfet_03v3
**devattr s=26000,604 d=26000,604
X144 vdd.t1 dffrs_13.nand3_8.C.t5 dffrs_13.Qb.t0 vdd.t0 pfet_03v3
**devattr s=26000,604 d=26000,604
X145 dffrs_7.nand3_1.C dffrs_0.Qb.t5 vdd.t71 vdd.t70 pfet_03v3
**devattr s=44000,1176 d=26000,604
X146 a_25188_4853 dffrs_5.nand3_1.C.t4 vss.t44 vss.t43 nfet_03v3
**devattr s=17600,576 d=10400,304
X147 a_10690_4853 dffrs_1.nand3_6.C.t6 a_10506_4853 vss.t305 nfet_03v3
**devattr s=10400,304 d=10400,304
X148 vdd.t160 d4.t4 dffrs_14.nand3_8.C.t1 vdd.t159 pfet_03v3
**devattr s=26000,604 d=26000,604
X149 dffrs_7.nand3_8.C.t1 dffrs_7.nand3_8.Z a_9204_12224 vss.t42 nfet_03v3
**devattr s=10400,304 d=17600,576
X150 a_17104_12224 dffrs_9.nand3_6.C.t7 vss.t221 vss.t220 nfet_03v3
**devattr s=17600,576 d=10400,304
X151 a_21146_2648 dffrs_4.nand3_6.C.t6 vss.t128 vss.t127 nfet_03v3
**devattr s=17600,576 d=10400,304
X152 dffrs_2.nand3_6.C.t2 dffrs_2.nand3_1.C.t4 vdd.t288 vdd.t287 pfet_03v3
**devattr s=44000,1176 d=26000,604
X153 dffrs_2.Q.t2 dffrs_2.Qb.t6 a_14732_4853 vss.t105 nfet_03v3
**devattr s=10400,304 d=17600,576
X154 a_17104_14429 dffrs_9.nand3_1.C vss.t50 vss.t49 nfet_03v3
**devattr s=17600,576 d=10400,304
X155 dffrs_7.nand3_6.C.t1 d3.t7 a_9204_14429 vss.t141 nfet_03v3
**devattr s=10400,304 d=17600,576
X156 dffrs_2.nand3_1.C.t0 vdd.t114 vdd.t116 vdd.t115 pfet_03v3
**devattr s=44000,1176 d=26000,604
X157 dffrs_0.nand3_8.Z.t0 dffrs_0.nand3_8.C.t5 vdd.t190 vdd.t189 pfet_03v3
**devattr s=44000,1176 d=26000,604
X158 vdd.t428 reset.t22 dffrs_0.nand3_6.C.t3 vdd.t427 pfet_03v3
**devattr s=26000,604 d=26000,604
X159 dffrs_3.nand3_6.C.t2 dffrs_3.nand3_1.C.t4 vdd.t228 vdd.t227 pfet_03v3
**devattr s=44000,1176 d=26000,604
X160 dffrs_0.nand3_8.C.t3 dffrs_0.nand3_6.C.t5 vdd.t140 vdd.t139 pfet_03v3
**devattr s=44000,1176 d=26000,604
X161 a_10690_2649 dffrs_1.nand3_8.C.t6 a_10506_2649 vss.t108 nfet_03v3
**devattr s=10400,304 d=10400,304
X162 vdd.t368 dffrs_0.nand3_8.Z.t5 dffrs_0.nand3_1.C.t1 vdd.t367 pfet_03v3
**devattr s=26000,604 d=26000,604
X163 dffrs_3.nand3_1.C.t3 vdd.t111 vdd.t113 vdd.t112 pfet_03v3
**devattr s=44000,1176 d=26000,604
X164 dffrs_10.Qb reset.t23 a_22816_12225 vss.t295 nfet_03v3
**devattr s=10400,304 d=17600,576
X165 dffrs_9.nand3_8.Z comp_in.t2 vdd.t336 vdd.t335 pfet_03v3
**devattr s=26000,604 d=44000,1176
X166 vdd.t426 reset.t24 dffrs_10.nand3_8.Z vdd.t425 pfet_03v3
**devattr s=26000,604 d=26000,604
X167 a_966_2648 dffrs_13.nand3_6.C.t6 vss.t326 vss.t325 nfet_03v3
**devattr s=17600,576 d=10400,304
X168 dffrs_12.Q.t2 dffrs_12.Qb a_30900_14429 vss.t179 nfet_03v3
**devattr s=10400,304 d=17600,576
X169 dffrs_4.d.t3 vdd.t108 vdd.t110 vdd.t109 pfet_03v3
**devattr s=44000,1176 d=26000,604
X170 a_30900_14429 dffrs_12.nand3_6.C.t6 a_30716_14429 vss.t331 nfet_03v3
**devattr s=10400,304 d=10400,304
X171 a_25188_7058 vdd.t522 vss.t188 vss.t187 nfet_03v3
**devattr s=17600,576 d=10400,304
X172 dffrs_2.Qb.t2 reset.t25 a_14732_2649 vss.t294 nfet_03v3
**devattr s=10400,304 d=17600,576
X173 d0.t1 dffrs_11.Qb a_26858_14429 vss.t2 nfet_03v3
**devattr s=10400,304 d=17600,576
X174 dffrs_14.nand3_8.Z comp_in.t3 vdd.t338 vdd.t337 pfet_03v3
**devattr s=26000,604 d=44000,1176
X175 dffrs_10.nand3_1.C dffrs_10.nand3_6.C.t7 a_21330_16634 vss.t315 nfet_03v3
**devattr s=10400,304 d=17600,576
X176 vdd.t272 dffrs_11.nand3_8.Z dffrs_11.nand3_1.C vdd.t271 pfet_03v3
**devattr s=26000,604 d=26000,604
X177 dffrs_8.nand3_8.C.t2 dffrs_8.nand3_8.Z vdd.t268 vdd.t267 pfet_03v3
**devattr s=26000,604 d=44000,1176
X178 vdd.t424 reset.t26 dffrs_12.nand3_8.Z vdd.t423 pfet_03v3
**devattr s=26000,604 d=26000,604
X179 a_10690_14429 dffrs_7.nand3_6.C.t6 a_10506_14429 vss.t5 nfet_03v3
**devattr s=10400,304 d=10400,304
X180 dffrs_8.nand3_6.C.t1 d2.t4 vdd.t514 vdd.t513 pfet_03v3
**devattr s=26000,604 d=44000,1176
X181 dffrs_12.nand3_1.C dffrs_12.nand3_6.C.t7 a_29414_16634 vss.t332 nfet_03v3
**devattr s=10400,304 d=17600,576
X182 dffrs_3.Qb.t0 dffrs_4.d.t5 vdd.t39 vdd.t38 pfet_03v3
**devattr s=44000,1176 d=26000,604
X183 dffrs_9.Qb d2.t5 vdd.t516 vdd.t515 pfet_03v3
**devattr s=44000,1176 d=26000,604
X184 a_18774_12225 dffrs_9.nand3_8.C.t5 a_18590_12225 vss.t55 nfet_03v3
**devattr s=10400,304 d=10400,304
X185 a_22632_12225 d1.t6 vss.t169 vss.t168 nfet_03v3
**devattr s=17600,576 d=10400,304
X186 dffrs_11.nand3_8.C.t2 dffrs_11.nand3_8.Z a_25372_12224 vss.t181 nfet_03v3
**devattr s=10400,304 d=17600,576
X187 a_26674_14429 dffrs_4.Qb.t7 vss.t15 vss.t14 nfet_03v3
**devattr s=17600,576 d=10400,304
X188 dffrs_11.nand3_6.C.t0 dffrs_12.Q.t7 a_25372_14429 vss.t59 nfet_03v3
**devattr s=10400,304 d=17600,576
X189 dffrs_13.nand3_8.Z.t3 vss.t212 a_1150_443 vss.t213 nfet_03v3
**devattr s=10400,304 d=17600,576
X190 a_21146_16634 dffrs_3.Qb.t7 vss.t311 vss.t310 nfet_03v3
**devattr s=17600,576 d=10400,304
X191 dffrs_7.nand3_1.C dffrs_7.nand3_6.C.t7 vdd.t7 vdd.t6 pfet_03v3
**devattr s=26000,604 d=44000,1176
X192 dffrs_9.nand3_1.C dffrs_2.Qb.t7 vdd.t180 vdd.t179 pfet_03v3
**devattr s=44000,1176 d=26000,604
X193 dffrs_2.Q.t0 vdd.t105 vdd.t107 vdd.t106 pfet_03v3
**devattr s=44000,1176 d=26000,604
X194 dffrs_0.nand3_6.C.t0 clk.t9 vdd.t172 vdd.t171 pfet_03v3
**devattr s=26000,604 d=44000,1176
X195 dffrs_14.nand3_8.C.t3 dffrs_14.nand3_8.Z vdd.t328 vdd.t327 pfet_03v3
**devattr s=26000,604 d=44000,1176
X196 a_17288_12224 d1.t7 a_17104_12224 vss.t170 nfet_03v3
**devattr s=10400,304 d=10400,304
X197 vdd.t422 reset.t27 dffrs_3.nand3_6.C.t3 vdd.t421 pfet_03v3
**devattr s=26000,604 d=26000,604
X198 vdd.t420 reset.t28 dffrs_5.nand3_6.C.t3 vdd.t419 pfet_03v3
**devattr s=26000,604 d=26000,604
X199 dffrs_0.nand3_1.C.t2 dffrs_0.nand3_6.C.t6 vdd.t142 vdd.t141 pfet_03v3
**devattr s=26000,604 d=44000,1176
X200 vdd.t418 reset.t29 dffrs_2.nand3_8.Z.t3 vdd.t417 pfet_03v3
**devattr s=26000,604 d=26000,604
X201 a_17288_14429 reset.t30 a_17104_14429 vss.t293 nfet_03v3
**devattr s=10400,304 d=10400,304
X202 vdd.t292 dffrs_3.nand3_8.Z.t5 dffrs_3.nand3_1.C.t2 vdd.t291 pfet_03v3
**devattr s=26000,604 d=26000,604
X203 a_13246_10019 reset.t31 a_13062_10019 vss.t292 nfet_03v3
**devattr s=10400,304 d=10400,304
X204 vdd.t286 dffrs_5.nand3_8.Z.t5 dffrs_5.nand3_1.C.t3 vdd.t285 pfet_03v3
**devattr s=26000,604 d=26000,604
X205 dffrs_0.Q.t1 dffrs_0.Qb.t6 vdd.t348 vdd.t347 pfet_03v3
**devattr s=26000,604 d=44000,1176
X206 vdd.t174 clk.t10 dffrs_2.nand3_8.C.t0 vdd.t173 pfet_03v3
**devattr s=26000,604 d=26000,604
X207 a_13062_10019 dffrs_8.nand3_8.C.t6 vss.t47 vss.t46 nfet_03v3
**devattr s=17600,576 d=10400,304
X208 dffrs_2.nand3_8.Z.t1 dffrs_2.d.t4 a_13246_443 vss.t316 nfet_03v3
**devattr s=10400,304 d=17600,576
X209 dffrs_2.Qb.t1 dffrs_2.Q.t4 vdd.t298 vdd.t297 pfet_03v3
**devattr s=44000,1176 d=26000,604
X210 dffrs_12.Qb reset.t32 vdd.t416 vdd.t415 pfet_03v3
**devattr s=26000,604 d=44000,1176
X211 vdd.t214 dffrs_12.nand3_8.C.t5 dffrs_12.Qb vdd.t213 pfet_03v3
**devattr s=26000,604 d=26000,604
X212 a_25188_10019 dffrs_11.nand3_8.C.t5 vss.t63 vss.t62 nfet_03v3
**devattr s=17600,576 d=10400,304
X213 dffrs_11.Qb reset.t33 vdd.t414 vdd.t413 pfet_03v3
**devattr s=26000,604 d=44000,1176
X214 dffrs_10.nand3_8.Z comp_in.t4 vdd.t340 vdd.t339 pfet_03v3
**devattr s=26000,604 d=44000,1176
X215 dffrs_0.Qb.t2 reset.t34 vdd.t412 vdd.t411 pfet_03v3
**devattr s=26000,604 d=44000,1176
X216 dffrs_11.nand3_1.C dffrs_11.nand3_6.C.t5 vdd.t198 vdd.t197 pfet_03v3
**devattr s=26000,604 d=44000,1176
X217 vdd.t500 dffrs_7.nand3_8.C.t4 dffrs_7.Qb vdd.t499 pfet_03v3
**devattr s=26000,604 d=26000,604
X218 a_6464_4853 vdd.t523 vss.t190 vss.t189 nfet_03v3
**devattr s=17600,576 d=10400,304
X219 dffrs_7.Qb reset.t35 a_10690_12225 vss.t291 nfet_03v3
**devattr s=10400,304 d=17600,576
X220 dffrs_12.nand3_8.Z vss.t341 vdd.t310 vdd.t309 pfet_03v3
**devattr s=26000,604 d=44000,1176
X221 a_17288_443 reset.t36 a_17104_443 vss.t290 nfet_03v3
**devattr s=10400,304 d=10400,304
X222 a_9204_4853 reset.t37 a_9020_4853 vss.t289 nfet_03v3
**devattr s=10400,304 d=10400,304
X223 a_13062_443 dffrs_2.nand3_8.C.t5 vss.t87 vss.t86 nfet_03v3
**devattr s=17600,576 d=10400,304
X224 vdd.t238 dffrs_8.nand3_6.C.t4 d3.t2 vdd.t237 pfet_03v3
**devattr s=26000,604 d=26000,604
X225 a_13062_2648 dffrs_2.nand3_6.C.t6 vss.t20 vss.t19 nfet_03v3
**devattr s=17600,576 d=10400,304
X226 dffrs_2.d.t0 vdd.t102 vdd.t104 vdd.t103 pfet_03v3
**devattr s=44000,1176 d=26000,604
X227 dffrs_11.Qb d0.t5 vdd.t508 vdd.t507 pfet_03v3
**devattr s=44000,1176 d=26000,604
X228 dffrs_9.Qb reset.t38 a_18774_12225 vss.t288 nfet_03v3
**devattr s=10400,304 d=17600,576
X229 a_22816_12225 dffrs_10.nand3_8.C.t5 a_22632_12225 vss.t80 nfet_03v3
**devattr s=10400,304 d=10400,304
X230 dffrs_10.nand3_8.Z dffrs_10.nand3_8.C.t6 vdd.t156 vdd.t155 pfet_03v3
**devattr s=44000,1176 d=26000,604
X231 dffrs_3.nand3_6.C.t1 clk.t11 a_17288_4853 vss.t100 nfet_03v3
**devattr s=10400,304 d=17600,576
X232 a_5162_2648 clk.t12 a_4978_2648 vss.t101 nfet_03v3
**devattr s=10400,304 d=10400,304
X233 vdd.t410 reset.t40 dffrs_4.nand3_6.C.t3 vdd.t409 pfet_03v3
**devattr s=26000,604 d=26000,604
X234 a_25372_443 reset.t39 a_25188_443 vss.t287 nfet_03v3
**devattr s=10400,304 d=10400,304
X235 a_17104_2648 dffrs_3.nand3_6.C.t5 vss.t10 vss.t9 nfet_03v3
**devattr s=17600,576 d=10400,304
X236 a_30716_14429 dffrs_5.Qb.t6 vss.t248 vss.t247 nfet_03v3
**devattr s=17600,576 d=10400,304
X237 a_26858_14429 dffrs_11.nand3_6.C.t6 a_26674_14429 vss.t113 nfet_03v3
**devattr s=10400,304 d=10400,304
X238 a_6464_2649 dffrs_0.Q.t5 vss.t140 vss.t139 nfet_03v3
**devattr s=17600,576 d=10400,304
X239 vdd.t101 vdd.t99 dffrs_13.nand3_6.C.t2 vdd.t100 pfet_03v3
**devattr s=26000,604 d=26000,604
X240 vdd.t360 dffrs_4.nand3_8.Z.t5 dffrs_4.nand3_1.C.t3 vdd.t359 pfet_03v3
**devattr s=26000,604 d=26000,604
X241 vdd.t132 dffrs_9.nand3_8.Z dffrs_9.nand3_1.C vdd.t131 pfet_03v3
**devattr s=26000,604 d=26000,604
X242 dffrs_5.nand3_8.Z.t0 dffrs_5.nand3_8.C.t6 vdd.t144 vdd.t143 pfet_03v3
**devattr s=44000,1176 d=26000,604
X243 vdd.t210 d2.t6 dffrs_8.nand3_8.C.t0 vdd.t209 pfet_03v3
**devattr s=26000,604 d=26000,604
X244 dffrs_14.nand3_8.Z dffrs_14.nand3_8.C.t5 vdd.t302 vdd.t301 pfet_03v3
**devattr s=44000,1176 d=26000,604
X245 dffrs_5.nand3_6.C.t2 clk.t13 vdd.t176 vdd.t175 pfet_03v3
**devattr s=26000,604 d=44000,1176
X246 vdd.t256 dffrs_13.nand3_8.Z.t6 dffrs_13.nand3_1.C.t2 vdd.t255 pfet_03v3
**devattr s=26000,604 d=26000,604
X247 dffrs_8.nand3_8.C.t1 dffrs_8.nand3_6.C.t5 vdd.t260 vdd.t259 pfet_03v3
**devattr s=44000,1176 d=26000,604
X248 dffrs_1.Qb.t3 dffrs_2.d.t5 vdd.t476 vdd.t475 pfet_03v3
**devattr s=44000,1176 d=26000,604
X249 dffrs_5.nand3_8.C.t0 dffrs_5.nand3_6.C.t6 vdd.t316 vdd.t315 pfet_03v3
**devattr s=44000,1176 d=26000,604
X250 a_10506_14429 dffrs_0.Qb.t7 vss.t239 vss.t238 nfet_03v3
**devattr s=17600,576 d=10400,304
X251 a_9204_443 reset.t42 a_9020_443 vss.t286 nfet_03v3
**devattr s=10400,304 d=10400,304
X252 vdd.t408 reset.t41 dffrs_8.nand3_6.C.t3 vdd.t407 pfet_03v3
**devattr s=26000,604 d=26000,604
X253 dffrs_5.nand3_1.C.t0 dffrs_5.nand3_6.C.t7 vdd.t318 vdd.t317 pfet_03v3
**devattr s=26000,604 d=44000,1176
X254 a_9204_16634 dffrs_7.nand3_8.Z a_9020_16634 vss.t41 nfet_03v3
**devattr s=10400,304 d=10400,304
X255 dffrs_8.nand3_6.C.t0 dffrs_8.nand3_1.C vdd.t45 vdd.t44 pfet_03v3
**devattr s=44000,1176 d=26000,604
X256 dffrs_0.nand3_8.Z.t2 dffrs_0.d.t6 a_5162_443 vss.t328 nfet_03v3
**devattr s=10400,304 d=17600,576
X257 dffrs_11.nand3_8.C.t1 dffrs_11.nand3_6.C.t7 vdd.t200 vdd.t199 pfet_03v3
**devattr s=44000,1176 d=26000,604
X258 a_9020_16634 dffrs_0.Qb.t8 vss.t241 vss.t240 nfet_03v3
**devattr s=17600,576 d=10400,304
X259 dffrs_5.Q.t2 dffrs_5.Qb.t7 vdd.t354 vdd.t353 pfet_03v3
**devattr s=26000,604 d=44000,1176
X260 a_5162_10022 reset.t43 a_4978_10022 vss.t285 nfet_03v3
**devattr s=10400,304 d=10400,304
X261 a_9204_7058 dffrs_1.nand3_8.Z.t5 a_9020_7058 vss.t167 nfet_03v3
**devattr s=10400,304 d=10400,304
X262 dffrs_11.nand3_6.C.t2 dffrs_11.nand3_1.C vdd.t344 vdd.t343 pfet_03v3
**devattr s=44000,1176 d=26000,604
X263 a_29230_10019 dffrs_12.nand3_8.C.t6 vss.t125 vss.t124 nfet_03v3
**devattr s=17600,576 d=10400,304
X264 a_5162_12227 d4.t5 a_4978_12227 vss.t260 nfet_03v3
**devattr s=10400,304 d=10400,304
X265 a_21146_443 dffrs_4.nand3_8.C.t5 vss.t320 vss.t319 nfet_03v3
**devattr s=17600,576 d=10400,304
X266 dffrs_3.nand3_1.C.t1 dffrs_3.nand3_6.C.t6 a_17288_7058 vss.t24 nfet_03v3
**devattr s=10400,304 d=17600,576
X267 a_6648_4853 dffrs_0.nand3_6.C.t7 a_6464_4853 vss.t72 nfet_03v3
**devattr s=10400,304 d=10400,304
X268 a_4978_443 dffrs_0.nand3_8.C.t6 vss.t201 vss.t200 nfet_03v3
**devattr s=17600,576 d=10400,304
X269 dffrs_5.Qb.t2 reset.t44 vdd.t406 vdd.t405 pfet_03v3
**devattr s=26000,604 d=44000,1176
X270 dffrs_2.nand3_6.C.t1 clk.t14 a_13246_4853 vss.t102 nfet_03v3
**devattr s=10400,304 d=17600,576
X271 a_26674_4853 vdd.t524 vss.t143 vss.t142 nfet_03v3
**devattr s=17600,576 d=10400,304
X272 dffrs_1.nand3_6.C.t1 clk.t15 a_9204_4853 vss.t109 nfet_03v3
**devattr s=10400,304 d=17600,576
X273 dffrs_14.nand3_8.C.t0 dffrs_14.nand3_6.C.t5 vdd.t224 vdd.t223 pfet_03v3
**devattr s=44000,1176 d=26000,604
X274 dffrs_1.nand3_6.C.t2 dffrs_1.nand3_1.C.t5 vdd.t202 vdd.t201 pfet_03v3
**devattr s=44000,1176 d=26000,604
X275 dffrs_4.nand3_6.C.t0 clk.t16 vdd.t192 vdd.t191 pfet_03v3
**devattr s=26000,604 d=44000,1176
X276 dffrs_0.nand3_8.C.t2 dffrs_0.nand3_8.Z.t6 a_5162_2648 vss.t259 nfet_03v3
**devattr s=10400,304 d=17600,576
X277 a_17288_2648 clk.t17 a_17104_2648 vss.t110 nfet_03v3
**devattr s=10400,304 d=10400,304
X278 dffrs_1.nand3_1.C.t1 vdd.t96 vdd.t98 vdd.t97 pfet_03v3
**devattr s=44000,1176 d=26000,604
X279 a_25372_2648 clk.t18 a_25188_2648 vss.t111 nfet_03v3
**devattr s=10400,304 d=10400,304
X280 d3.t0 dffrs_8.Qb vdd.t33 vdd.t32 pfet_03v3
**devattr s=26000,604 d=44000,1176
X281 a_6648_2649 dffrs_0.nand3_8.C.t7 a_6464_2649 vss.t202 nfet_03v3
**devattr s=10400,304 d=10400,304
X282 dffrs_4.nand3_1.C.t1 dffrs_4.nand3_6.C.t7 vdd.t218 vdd.t217 pfet_03v3
**devattr s=26000,604 d=44000,1176
X283 dffrs_13.nand3_6.C.t0 clk.t19 vdd.t194 vdd.t193 pfet_03v3
**devattr s=26000,604 d=44000,1176
X284 a_25372_16634 dffrs_11.nand3_8.Z a_25188_16634 vss.t180 nfet_03v3
**devattr s=10400,304 d=10400,304
X285 a_26674_2649 dffrs_5.Q.t5 vss.t23 vss.t22 nfet_03v3
**devattr s=17600,576 d=10400,304
X286 vdd.t81 dffrs_11.nand3_8.C.t6 dffrs_11.Qb vdd.t80 pfet_03v3
**devattr s=26000,604 d=26000,604
X287 dffrs_12.Qb dffrs_12.Q.t8 vdd.t79 vdd.t78 pfet_03v3
**devattr s=44000,1176 d=26000,604
X288 dffrs_8.nand3_8.C.t3 dffrs_8.nand3_8.Z a_13246_12224 vss.t177 nfet_03v3
**devattr s=10400,304 d=17600,576
X289 dffrs_4.Q.t2 dffrs_4.Qb.t8 vdd.t15 vdd.t14 pfet_03v3
**devattr s=26000,604 d=44000,1176
X290 dffrs_13.nand3_1.C.t1 dffrs_13.nand3_6.C.t7 vdd.t492 vdd.t491 pfet_03v3
**devattr s=26000,604 d=44000,1176
X291 dffrs_8.nand3_6.C.t2 d2.t7 a_13246_14429 vss.t120 nfet_03v3
**devattr s=10400,304 d=17600,576
X292 dffrs_0.d.t1 dffrs_13.Qb.t6 vdd.t146 vdd.t145 pfet_03v3
**devattr s=26000,604 d=44000,1176
X293 dffrs_7.Qb d4.t6 vdd.t370 vdd.t369 pfet_03v3
**devattr s=44000,1176 d=26000,604
X294 a_18590_12225 d2.t8 vss.t122 vss.t121 nfet_03v3
**devattr s=17600,576 d=10400,304
X295 dffrs_12.nand3_8.C.t3 dffrs_12.nand3_6.C.t8 vdd.t506 vdd.t505 pfet_03v3
**devattr s=44000,1176 d=26000,604
X296 vdd.t404 reset.t45 dffrs_7.nand3_8.Z vdd.t403 pfet_03v3
**devattr s=26000,604 d=26000,604
X297 a_21146_4853 dffrs_4.nand3_1.C.t5 vss.t163 vss.t162 nfet_03v3
**devattr s=17600,576 d=10400,304
X298 dffrs_7.nand3_8.Z dffrs_7.nand3_8.C.t5 vdd.t332 vdd.t331 pfet_03v3
**devattr s=44000,1176 d=26000,604
X299 vdd.t402 reset.t46 dffrs_14.nand3_6.C.t3 vdd.t401 pfet_03v3
**devattr s=26000,604 d=26000,604
X300 dffrs_2.nand3_1.C.t1 dffrs_2.nand3_6.C.t7 a_13246_7058 vss.t21 nfet_03v3
**devattr s=10400,304 d=17600,576