* NGSPICE file created from comp_SAR_final.ext - technology: gf180mcuD

.subckt comparator_no_offsetcal VDD VSS CLK Vin1 Vin2 Vout
X0 VDD a_5265_2223# Vout VDD pfet_03v3 ad=0.4675p pd=2.25u as=0.4675p ps=2.25u w=1.7u l=0.3u
X1 VDD a_6467_n692# a_6379_n600# VDD pfet_03v3 ad=0.26p pd=1.52u as=0.44p ps=2.88u w=1u l=1u
X2 no_offsetLatch_0.Vout1 no_offsetLatch_0.Vout2 no_offsetLatch_0.Vp VSS nfet_03v3 ad=0.52p pd=2.52u as=0.52p ps=2.52u w=2u l=1u
X3 VSS a_7711_n4982# a_7623_n4890# VSS nfet_03v3 ad=0.208p pd=1.32u as=0.352p ps=2.48u w=0.8u l=0.4u
X4 VDD a_5265_2223# Vout VDD pfet_03v3 ad=0.4675p pd=2.25u as=0.4675p ps=2.25u w=1.7u l=0.3u
X5 VDD no_offsetLatch_0.Vout2 x5.out VDD pfet_03v3 ad=1.76p pd=8.88u as=1.76p ps=8.88u w=4u l=0.4u
X6 no_offsetLatch_0.Vp CLK VDD VDD pfet_03v3 ad=0.352p pd=2.48u as=0.352p ps=2.48u w=0.8u l=0.4u
X7 a_9403_n600# a_9203_n692# VDD VDD pfet_03v3 ad=0.44p pd=2.88u as=0.26p ps=1.52u w=1u l=1u
X8 VDD CLK no_offsetLatch_0.Vout2 VDD pfet_03v3 ad=0.352p pd=2.48u as=0.352p ps=2.48u w=0.8u l=0.4u
X9 no_offsetLatch_0.Vout2 a_8125_n1848# a_8037_n1756# VSS nfet_03v3 ad=0.52p pd=2.52u as=0.88p ps=4.88u w=2u l=1u
X10 no_offsetLatch_0.Vq Vin2 a_6667_n4104# VSS nfet_03v3 ad=0.39p pd=2.02u as=0.39p ps=2.02u w=1.5u l=1u
X11 a_6667_n4104# Vin1 no_offsetLatch_0.Vp VSS nfet_03v3 ad=0.39p pd=2.02u as=0.39p ps=2.02u w=1.5u l=1u
X12 VDD no_offsetLatch_0.Vout1 no_offsetLatch_0.Vout2 VDD pfet_03v3 ad=0.26p pd=1.52u as=0.26p ps=1.52u w=1u l=1u
X13 no_offsetLatch_0.Vout2 no_offsetLatch_0.Vout1 VDD VDD pfet_03v3 ad=0.26p pd=1.52u as=0.26p ps=1.52u w=1u l=1u
X14 no_offsetLatch_0.Vp a_6163_n3233# a_6075_n3141# VSS nfet_03v3 ad=0.39p pd=2.02u as=0.66p ps=3.88u w=1.5u l=1u
X15 no_offsetLatch_0.Vp Vin1 a_6667_n4104# VSS nfet_03v3 ad=0.39p pd=2.02u as=0.39p ps=2.02u w=1.5u l=1u
X16 a_6667_n4104# Vin2 no_offsetLatch_0.Vq VSS nfet_03v3 ad=0.39p pd=2.02u as=0.39p ps=2.02u w=1.5u l=1u
X17 a_6667_n4104# Vin1 no_offsetLatch_0.Vp VSS nfet_03v3 ad=0.39p pd=2.02u as=0.39p ps=2.02u w=1.5u l=1u
X18 a_9707_n4104# a_9507_n4196# no_offsetLatch_0.Vp VSS nfet_03v3 ad=0.66p pd=3.88u as=0.39p ps=2.02u w=1.5u l=1u
X19 Vout a_5265_2223# VSS VSS nfet_03v3 ad=0.23375p pd=1.4u as=0.23375p ps=1.4u w=0.85u l=0.3u
X20 no_offsetLatch_0.Vout1 no_offsetLatch_0.Vout2 VDD VDD pfet_03v3 ad=0.26p pd=1.52u as=0.26p ps=1.52u w=1u l=1u
X21 VDD CLK no_offsetLatch_0.Vq VDD pfet_03v3 ad=0.352p pd=2.48u as=0.352p ps=2.48u w=0.8u l=0.4u
X22 a_7745_n1756# a_7545_n1848# no_offsetLatch_0.Vout1 VSS nfet_03v3 ad=0.88p pd=4.88u as=0.52p ps=2.52u w=2u l=1u
X23 a_5265_2223# x4.A VSS VSS nfet_03v3 ad=0.425p pd=2.7u as=0.23375p ps=1.4u w=0.85u l=0.3u
X24 no_offsetLatch_0.Vq no_offsetLatch_0.Vout1 no_offsetLatch_0.Vout2 VSS nfet_03v3 ad=0.52p pd=2.52u as=0.52p ps=2.52u w=2u l=1u
X25 x4.A x2.Vout2 VDD VDD pfet_03v3 ad=0.44p pd=2.88u as=0.44p ps=2.88u w=1u l=0.4u
X26 x4.A x3.out VSS VSS nfet_03v3 ad=0.44p pd=2.88u as=0.44p ps=2.88u w=1u l=0.4u
X27 no_offsetLatch_0.Vq a_6163_n4196# a_6075_n4104# VSS nfet_03v3 ad=0.39p pd=2.02u as=0.66p ps=3.88u w=1.5u l=1u
X28 no_offsetLatch_0.Vout1 no_offsetLatch_0.Vout2 VDD VDD pfet_03v3 ad=0.26p pd=1.52u as=0.26p ps=1.52u w=1u l=1u
X29 a_6667_n4104# Vin2 no_offsetLatch_0.Vq VSS nfet_03v3 ad=0.39p pd=2.02u as=0.39p ps=2.02u w=1.5u l=1u
X30 a_6667_n4104# Vin2 no_offsetLatch_0.Vq VSS nfet_03v3 ad=0.39p pd=2.02u as=0.39p ps=2.02u w=1.5u l=1u
X31 Vout a_5265_2223# VDD VDD pfet_03v3 ad=0.4675p pd=2.25u as=0.4675p ps=2.25u w=1.7u l=0.3u
X32 Vout a_5265_2223# VSS VSS nfet_03v3 ad=0.23375p pd=1.4u as=0.425p ps=2.7u w=0.85u l=0.3u
X33 no_offsetLatch_0.Vout1 CLK VDD VDD pfet_03v3 ad=0.352p pd=2.48u as=0.352p ps=2.48u w=0.8u l=0.4u
X34 no_offsetLatch_0.Vp Vin1 a_6667_n4104# VSS nfet_03v3 ad=0.39p pd=2.02u as=0.39p ps=2.02u w=1.5u l=1u
X35 no_offsetLatch_0.Vq Vin2 a_6667_n4104# VSS nfet_03v3 ad=0.39p pd=2.02u as=0.39p ps=2.02u w=1.5u l=1u
X36 a_5265_2223# x4.A VDD VDD pfet_03v3 ad=0.85p pd=4.4u as=0.4675p ps=2.25u w=1.7u l=0.3u
X37 VDD no_offsetLatch_0.Vout2 no_offsetLatch_0.Vout1 VDD pfet_03v3 ad=0.26p pd=1.52u as=0.26p ps=1.52u w=1u l=1u
X38 no_offsetLatch_0.Vout2 no_offsetLatch_0.Vout1 VDD VDD pfet_03v3 ad=0.26p pd=1.52u as=0.26p ps=1.52u w=1u l=1u
X39 no_offsetLatch_0.Vp no_offsetLatch_0.Vout2 no_offsetLatch_0.Vout1 VSS nfet_03v3 ad=0.52p pd=2.52u as=0.52p ps=2.52u w=2u l=1u
X40 a_6667_n4104# Vin1 no_offsetLatch_0.Vp VSS nfet_03v3 ad=0.39p pd=2.02u as=0.39p ps=2.02u w=1.5u l=1u
X41 Vout a_5265_2223# VDD VDD pfet_03v3 ad=0.4675p pd=2.25u as=0.85p ps=4.4u w=1.7u l=0.3u
X42 no_offsetLatch_0.Vq no_offsetLatch_0.Vout1 no_offsetLatch_0.Vout2 VSS nfet_03v3 ad=0.52p pd=2.52u as=0.52p ps=2.52u w=2u l=1u
X43 a_9541_n1756# a_9341_n1848# no_offsetLatch_0.Vq VSS nfet_03v3 ad=0.88p pd=4.88u as=0.52p ps=2.52u w=2u l=1u
X44 no_offsetLatch_0.Vq Vin2 a_6667_n4104# VSS nfet_03v3 ad=0.39p pd=2.02u as=0.39p ps=2.02u w=1.5u l=1u
X45 VDD x4.A x2.Vout2 VDD pfet_03v3 ad=0.44p pd=2.88u as=0.44p ps=2.88u w=1u l=0.4u
X46 VSS x5.out x2.Vout2 VSS nfet_03v3 ad=0.44p pd=2.88u as=0.44p ps=2.88u w=1u l=0.4u
X47 a_6667_n4104# Vin1 no_offsetLatch_0.Vp VSS nfet_03v3 ad=0.39p pd=2.02u as=0.39p ps=2.02u w=1.5u l=1u
X48 no_offsetLatch_0.Vp Vin1 a_6667_n4104# VSS nfet_03v3 ad=0.39p pd=2.02u as=0.39p ps=2.02u w=1.5u l=1u
X49 no_offsetLatch_0.Vout1 no_offsetLatch_0.Vout2 no_offsetLatch_0.Vp VSS nfet_03v3 ad=0.52p pd=2.52u as=0.52p ps=2.52u w=2u l=1u
X50 no_offsetLatch_0.Vq Vin2 a_6667_n4104# VSS nfet_03v3 ad=0.39p pd=2.02u as=0.39p ps=2.02u w=1.5u l=1u
X51 x3.out no_offsetLatch_0.Vout1 VSS VSS nfet_03v3 ad=0.88p pd=4.88u as=0.88p ps=4.88u w=2u l=0.4u
X52 no_offsetLatch_0.Vp a_6329_n1848# a_6241_n1756# VSS nfet_03v3 ad=0.52p pd=2.52u as=0.88p ps=4.88u w=2u l=1u
X53 a_6667_n4104# CLK VSS VSS nfet_03v3 ad=0.208p pd=1.32u as=0.208p ps=1.32u w=0.8u l=0.4u
X54 a_8159_n4890# a_8079_n4982# a_6667_n4104# VSS nfet_03v3 ad=0.352p pd=2.48u as=0.208p ps=1.32u w=0.8u l=0.4u
X55 VSS a_5265_2223# Vout VSS nfet_03v3 ad=0.23375p pd=1.4u as=0.23375p ps=1.4u w=0.85u l=0.3u
X56 VSS no_offsetLatch_0.Vout2 x5.out VSS nfet_03v3 ad=0.88p pd=4.88u as=0.88p ps=4.88u w=2u l=0.4u
X57 x3.out no_offsetLatch_0.Vout1 VDD VDD pfet_03v3 ad=1.76p pd=8.88u as=1.76p ps=8.88u w=4u l=0.4u
X58 VDD no_offsetLatch_0.Vout2 no_offsetLatch_0.Vout1 VDD pfet_03v3 ad=0.26p pd=1.52u as=0.26p ps=1.52u w=1u l=1u
X59 no_offsetLatch_0.Vout2 no_offsetLatch_0.Vout1 no_offsetLatch_0.Vq VSS nfet_03v3 ad=0.52p pd=2.52u as=0.52p ps=2.52u w=2u l=1u
X60 a_6667_n4104# Vin2 no_offsetLatch_0.Vq VSS nfet_03v3 ad=0.39p pd=2.02u as=0.39p ps=2.02u w=1.5u l=1u
X61 a_6667_n4104# Vin2 no_offsetLatch_0.Vq VSS nfet_03v3 ad=0.39p pd=2.02u as=0.39p ps=2.02u w=1.5u l=1u
X62 VSS a_5265_2223# Vout VSS nfet_03v3 ad=0.23375p pd=1.4u as=0.23375p ps=1.4u w=0.85u l=0.3u
X63 no_offsetLatch_0.Vp Vin1 a_6667_n4104# VSS nfet_03v3 ad=0.39p pd=2.02u as=0.39p ps=2.02u w=1.5u l=1u
X64 no_offsetLatch_0.Vp Vin1 a_6667_n4104# VSS nfet_03v3 ad=0.39p pd=2.02u as=0.39p ps=2.02u w=1.5u l=1u
X65 no_offsetLatch_0.Vq Vin2 a_6667_n4104# VSS nfet_03v3 ad=0.39p pd=2.02u as=0.39p ps=2.02u w=1.5u l=1u
X66 a_6667_n4104# Vin1 no_offsetLatch_0.Vp VSS nfet_03v3 ad=0.39p pd=2.02u as=0.39p ps=2.02u w=1.5u l=1u
X67 VDD no_offsetLatch_0.Vout1 no_offsetLatch_0.Vout2 VDD pfet_03v3 ad=0.26p pd=1.52u as=0.26p ps=1.52u w=1u l=1u
X68 a_9707_n3141# a_9507_n3233# no_offsetLatch_0.Vq VSS nfet_03v3 ad=0.66p pd=3.88u as=0.39p ps=2.02u w=1.5u l=1u
.ends

.subckt inv2 in vdd out vss
X0 out in vdd vdd pfet_03v3 ad=1.32p pd=6.88u as=1.32p ps=6.88u w=3u l=0.5u
X1 out in vss vss nfet_03v3 ad=0.44p pd=2.88u as=0.44p ps=2.88u w=1u l=0.5u
.ends

.subckt adc_PISO load B6 B5 B4 serial_out avdd B3 avss B2 B1 clk
X0 a_44488_8266# avdd avss avss nfet_03v3 ad=0.26p pd=1.52u as=0.44p ps=2.88u w=1u l=0.4u
X1 a_50206_2781# a_48650_3501# avdd avdd pfet_03v3 ad=1.32p pd=6.88u as=1.32p ps=6.88u w=3u l=0.5u
X2 a_6600_2510# a_6520_1558# avdd avdd pfet_03v3 ad=0.65p pd=3.02u as=1.1p ps=5.88u w=2.5u l=0.4u
X3 a_6520_1558# a_6520_3763# avdd avdd pfet_03v3 ad=0.65p pd=3.02u as=1.1p ps=5.88u w=2.5u l=0.4u
X4 avdd dffrs_1.Q a_20234_3501# avdd pfet_03v3 ad=1.32p pd=6.88u as=1.32p ps=6.88u w=3u l=0.5u
X5 avdd a_6520_3763# 2inmux_2.Bit avdd pfet_03v3 ad=0.65p pd=3.02u as=0.65p ps=3.02u w=2.5u l=0.4u
X6 a_2846_2780# a_1290_3500# avdd avdd pfet_03v3 ad=1.32p pd=6.88u as=1.32p ps=6.88u w=3u l=0.5u
X7 dffrs_4.Qb avdd a_46158_3857# avss nfet_03v3 ad=0.44p pd=2.88u as=0.26p ps=1.52u w=1u l=0.4u
X8 a_15992_3763# clk a_16256_6060# avss nfet_03v3 ad=0.44p pd=2.88u as=0.26p ps=1.52u w=1u l=0.4u
X9 2inmux_1.Bit dffrs_4.Qb a_46158_6061# avss nfet_03v3 ad=0.44p pd=2.88u as=0.26p ps=1.52u w=1u l=0.4u
X10 a_10950_2780# 2inmux_2.Bit avss avss nfet_03v3 ad=0.26p pd=1.52u as=0.44p ps=2.88u w=1u l=0.5u
X11 a_15992_5968# a_15992_3763# a_16256_8265# avss nfet_03v3 ad=0.44p pd=2.88u as=0.26p ps=1.52u w=1u l=0.4u
X12 a_39178_3501# load avdd avdd pfet_03v3 ad=1.32p pd=6.88u as=1.32p ps=6.88u w=3u l=0.5u
X13 avss dffrs_2.Q a_29894_2781# avss nfet_03v3 ad=0.44p pd=2.88u as=0.26p ps=1.52u w=1u l=0.5u
X14 a_50206_441# a_48650_1161# avss avss nfet_03v3 ad=0.44p pd=2.88u as=0.44p ps=2.88u w=1u l=0.5u
X15 2inmux_1.OUT a_50878_1605# avss avss nfet_03v3 ad=0.44p pd=2.88u as=0.44p ps=2.88u w=1u l=0.5u
X16 avdd a_6520_1558# dffrs_0.Qb avdd pfet_03v3 ad=0.65p pd=3.02u as=0.65p ps=3.02u w=2.5u l=0.4u
X17 avss a_21790_2781# a_22462_1605# avss nfet_03v3 ad=0.44p pd=2.88u as=0.44p ps=2.88u w=1u l=0.5u
X18 a_35016_1651# a_34936_1559# avss avss nfet_03v3 ad=0.26p pd=1.52u as=0.44p ps=2.88u w=1u l=0.4u
X19 a_35016_3856# a_34936_3764# avss avss nfet_03v3 ad=0.26p pd=1.52u as=0.44p ps=2.88u w=1u l=0.4u
X20 2inmux_0.OUT a_3518_1604# avss avss nfet_03v3 ad=0.44p pd=2.88u as=0.44p ps=2.88u w=1u l=0.5u
X21 a_22462_1605# a_21790_441# a_22650_2325# avdd pfet_03v3 ad=1.32p pd=6.88u as=0.78p ps=3.52u w=3u l=0.5u
X22 a_29000_1361# load avdd avdd pfet_03v3 ad=1.32p pd=6.88u as=1.32p ps=6.88u w=3u l=0.5u
X23 avss a_47944_1361# a_48838_441# avss nfet_03v3 ad=0.44p pd=2.88u as=0.26p ps=1.52u w=1u l=0.5u
X24 avdd avdd a_44408_3764# avdd pfet_03v3 ad=0.65p pd=3.02u as=0.65p ps=3.02u w=2.5u l=0.4u
X25 a_21790_441# a_20234_1161# avdd avdd pfet_03v3 ad=1.32p pd=6.88u as=1.32p ps=6.88u w=3u l=0.5u
X26 a_1478_2780# load a_1290_3500# avss nfet_03v3 ad=0.26p pd=1.52u as=0.44p ps=2.88u w=1u l=0.5u
X27 avdd a_29000_1361# a_29706_1161# avdd pfet_03v3 ad=1.32p pd=6.88u as=1.32p ps=6.88u w=3u l=0.5u
X28 a_25464_3764# clk avdd avdd pfet_03v3 ad=1.1p pd=5.88u as=0.65p ps=3.02u w=2.5u l=0.4u
X29 avdd avdd a_6600_2510# avdd pfet_03v3 ad=0.65p pd=3.02u as=0.65p ps=3.02u w=2.5u l=0.4u
X30 a_1478_440# B6 a_1290_1160# avss nfet_03v3 ad=0.26p pd=1.52u as=0.44p ps=2.88u w=1u l=0.5u
X31 avdd a_25464_3764# dffrs_2.Q avdd pfet_03v3 ad=0.65p pd=3.02u as=0.65p ps=3.02u w=2.5u l=0.4u
X32 a_35200_6061# avdd a_35016_6061# avss nfet_03v3 ad=0.26p pd=1.52u as=0.26p ps=1.52u w=1u l=0.4u
X33 avdd 2inmux_2.Bit a_10762_3500# avdd pfet_03v3 ad=1.32p pd=6.88u as=1.32p ps=6.88u w=3u l=0.5u
X34 a_1290_1160# B6 avdd avdd pfet_03v3 ad=1.32p pd=6.88u as=1.32p ps=6.88u w=3u l=0.5u
X35 2inmux_2.Bit dffrs_0.Qb avdd avdd pfet_03v3 ad=1.1p pd=5.88u as=0.65p ps=3.02u w=2.5u l=0.4u
X36 avdd clk a_6520_1558# avdd pfet_03v3 ad=0.65p pd=3.02u as=0.65p ps=3.02u w=2.5u l=0.4u
X37 a_35200_8266# a_35016_2511# a_35016_8266# avss nfet_03v3 ad=0.26p pd=1.52u as=0.26p ps=1.52u w=1u l=0.4u
X38 avss 2inmux_1.Bit a_48838_2781# avss nfet_03v3 ad=0.44p pd=2.88u as=0.26p ps=1.52u w=1u l=0.5u
X39 avss a_40734_2781# a_41406_1605# avss nfet_03v3 ad=0.44p pd=2.88u as=0.44p ps=2.88u w=1u l=0.5u
X40 avdd a_44488_2511# a_44408_5969# avdd pfet_03v3 ad=0.65p pd=3.02u as=0.65p ps=3.02u w=2.5u l=0.4u
X41 avdd a_25464_1559# dffrs_2.Qb avdd pfet_03v3 ad=0.65p pd=3.02u as=0.65p ps=3.02u w=2.5u l=0.4u
X42 a_31262_2781# a_29706_3501# avss avss nfet_03v3 ad=0.44p pd=2.88u as=0.44p ps=2.88u w=1u l=0.5u
X43 a_47944_1361# load avdd avdd pfet_03v3 ad=1.32p pd=6.88u as=1.32p ps=6.88u w=3u l=0.5u
X44 a_39366_2781# dffrs_3.Q avss avss nfet_03v3 ad=0.26p pd=1.52u as=0.44p ps=2.88u w=1u l=0.5u
X45 dffrs_0.Qb avdd avdd avdd pfet_03v3 ad=1.1p pd=5.88u as=0.65p ps=3.02u w=2.5u l=0.4u
X46 avdd a_584_1360# a_1290_1160# avdd pfet_03v3 ad=1.32p pd=6.88u as=1.32p ps=6.88u w=3u l=0.5u
X47 2inmux_3.OUT a_22462_1605# avss avss nfet_03v3 ad=0.44p pd=2.88u as=0.44p ps=2.88u w=1u l=0.5u
X48 a_51066_2325# a_50206_441# a_50878_1605# avdd pfet_03v3 ad=0.78p pd=3.52u as=1.32p ps=6.88u w=3u l=0.5u
X49 a_12990_1604# a_12318_440# a_13178_2324# avdd pfet_03v3 ad=1.32p pd=6.88u as=0.78p ps=3.52u w=3u l=0.5u
X50 a_25464_5969# a_25464_3764# avdd avdd pfet_03v3 ad=1.1p pd=5.88u as=0.65p ps=3.02u w=2.5u l=0.4u
X51 a_44488_2511# a_44408_1559# avdd avdd pfet_03v3 ad=0.65p pd=3.02u as=1.1p ps=5.88u w=2.5u l=0.4u
X52 avdd avdd a_15992_3763# avdd pfet_03v3 ad=0.65p pd=3.02u as=0.65p ps=3.02u w=2.5u l=0.4u
X53 a_44408_3764# clk avdd avdd pfet_03v3 ad=1.1p pd=5.88u as=0.65p ps=3.02u w=2.5u l=0.4u
X54 a_44408_1559# a_44408_3764# avdd avdd pfet_03v3 ad=0.65p pd=3.02u as=1.1p ps=5.88u w=2.5u l=0.4u
X55 a_20422_2781# load a_20234_3501# avss nfet_03v3 ad=0.26p pd=1.52u as=0.44p ps=2.88u w=1u l=0.5u
X56 avdd a_44408_3764# 2inmux_1.Bit avdd pfet_03v3 ad=0.65p pd=3.02u as=0.65p ps=3.02u w=2.5u l=0.4u
X57 a_54144_6061# avdd a_53960_6061# avss nfet_03v3 ad=0.26p pd=1.52u as=0.26p ps=1.52u w=1u l=0.4u
X58 a_55630_3857# a_53880_1559# a_55446_3857# avss nfet_03v3 ad=0.26p pd=1.52u as=0.26p ps=1.52u w=1u l=0.4u
X59 a_54144_8266# a_53960_2511# a_53960_8266# avss nfet_03v3 ad=0.26p pd=1.52u as=0.26p ps=1.52u w=1u l=0.4u
X60 avdd a_15992_3763# dffrs_1.Q avdd pfet_03v3 ad=0.65p pd=3.02u as=0.65p ps=3.02u w=2.5u l=0.4u
X61 a_25544_6061# a_25464_5969# avss avss nfet_03v3 ad=0.26p pd=1.52u as=0.44p ps=2.88u w=1u l=0.4u
X62 a_27030_3857# dffrs_2.Q avss avss nfet_03v3 ad=0.26p pd=1.52u as=0.44p ps=2.88u w=1u l=0.4u
X63 a_25544_8266# avdd avss avss nfet_03v3 ad=0.26p pd=1.52u as=0.44p ps=2.88u w=1u l=0.4u
X64 dffrs_2.Q dffrs_2.Qb avdd avdd pfet_03v3 ad=1.1p pd=5.88u as=0.65p ps=3.02u w=2.5u l=0.4u
X65 a_55630_6061# a_53880_3764# a_55446_6061# avss nfet_03v3 ad=0.26p pd=1.52u as=0.26p ps=1.52u w=1u l=0.4u
X66 a_3518_1604# a_2846_440# avss avss nfet_03v3 ad=0.44p pd=2.88u as=0.44p ps=2.88u w=1u l=0.5u
X67 a_27030_6061# avdd avss avss nfet_03v3 ad=0.26p pd=1.52u as=0.44p ps=2.88u w=1u l=0.4u
X68 a_34936_3764# clk a_35200_6061# avss nfet_03v3 ad=0.44p pd=2.88u as=0.26p ps=1.52u w=1u l=0.4u
X69 a_31262_2781# a_29706_3501# avdd avdd pfet_03v3 ad=1.32p pd=6.88u as=1.32p ps=6.88u w=3u l=0.5u
X70 avdd dffrs_3.Q a_39178_3501# avdd pfet_03v3 ad=1.32p pd=6.88u as=1.32p ps=6.88u w=3u l=0.5u
X71 a_16072_2510# 2inmux_2.OUT avdd avdd pfet_03v3 ad=1.1p pd=5.88u as=0.65p ps=3.02u w=2.5u l=0.4u
X72 a_34936_5969# a_34936_3764# a_35200_8266# avss nfet_03v3 ad=0.44p pd=2.88u as=0.26p ps=1.52u w=1u l=0.4u
X73 avdd a_44408_1559# dffrs_4.Qb avdd pfet_03v3 ad=0.65p pd=3.02u as=0.65p ps=3.02u w=2.5u l=0.4u
X74 a_15992_1558# a_16072_2510# avdd avdd pfet_03v3 ad=1.1p pd=5.88u as=0.65p ps=3.02u w=2.5u l=0.4u
X75 a_39366_441# a_38472_1361# avss avss nfet_03v3 ad=0.26p pd=1.52u as=0.44p ps=2.88u w=1u l=0.5u
X76 a_21790_441# a_20234_1161# avss avss nfet_03v3 ad=0.44p pd=2.88u as=0.44p ps=2.88u w=1u l=0.5u
X77 a_1290_1160# B6 a_1478_440# avss nfet_03v3 ad=0.44p pd=2.88u as=0.26p ps=1.52u w=1u l=0.5u
X78 a_44408_5969# a_44408_3764# avdd avdd pfet_03v3 ad=1.1p pd=5.88u as=0.65p ps=3.02u w=2.5u l=0.4u
X79 avdd a_15992_1558# dffrs_1.Qb avdd pfet_03v3 ad=0.65p pd=3.02u as=0.65p ps=3.02u w=2.5u l=0.4u
X80 dffrs_2.Qb avdd avdd avdd pfet_03v3 ad=1.1p pd=5.88u as=0.65p ps=3.02u w=2.5u l=0.4u
X81 avss a_12318_2780# a_12990_1604# avss nfet_03v3 ad=0.44p pd=2.88u as=0.44p ps=2.88u w=1u l=0.5u
X82 avdd a_16072_2510# a_15992_5968# avdd pfet_03v3 ad=0.65p pd=3.02u as=0.65p ps=3.02u w=2.5u l=0.4u
X83 a_53880_3764# a_53880_5969# avdd avdd pfet_03v3 ad=0.65p pd=3.02u as=1.1p ps=5.88u w=2.5u l=0.4u
X84 a_2846_440# a_1290_1160# avss avss nfet_03v3 ad=0.44p pd=2.88u as=0.44p ps=2.88u w=1u l=0.5u
X85 a_44672_1651# avdd a_44488_1651# avss nfet_03v3 ad=0.26p pd=1.52u as=0.26p ps=1.52u w=1u l=0.4u
X86 2inmux_4.OUT a_31934_1605# avss avss nfet_03v3 ad=0.44p pd=2.88u as=0.44p ps=2.88u w=1u l=0.5u
X87 a_44672_3856# clk a_44488_3856# avss nfet_03v3 ad=0.26p pd=1.52u as=0.26p ps=1.52u w=1u l=0.4u
X88 dffrs_3.Q avdd avdd avdd pfet_03v3 ad=0.65p pd=3.02u as=1.1p ps=5.88u w=2.5u l=0.4u
X89 a_45974_3857# 2inmux_1.Bit avss avss nfet_03v3 ad=0.26p pd=1.52u as=0.44p ps=2.88u w=1u l=0.4u
X90 a_10950_2780# load a_10762_3500# avss nfet_03v3 ad=0.26p pd=1.52u as=0.44p ps=2.88u w=1u l=0.5u
X91 a_25544_2511# 2inmux_3.OUT a_25728_1651# avss nfet_03v3 ad=0.44p pd=2.88u as=0.26p ps=1.52u w=1u l=0.4u
X92 a_1478_440# a_584_1360# avss avss nfet_03v3 ad=0.26p pd=1.52u as=0.44p ps=2.88u w=1u l=0.5u
X93 a_16072_6060# a_15992_5968# avss avss nfet_03v3 ad=0.26p pd=1.52u as=0.44p ps=2.88u w=1u l=0.4u
X94 a_25464_1559# a_25544_2511# a_25728_3856# avss nfet_03v3 ad=0.44p pd=2.88u as=0.26p ps=1.52u w=1u l=0.4u
X95 a_25728_6061# avdd a_25544_6061# avss nfet_03v3 ad=0.26p pd=1.52u as=0.26p ps=1.52u w=1u l=0.4u
X96 a_45974_6061# avdd avss avss nfet_03v3 ad=0.26p pd=1.52u as=0.44p ps=2.88u w=1u l=0.4u
X97 a_53880_3764# clk a_54144_6061# avss nfet_03v3 ad=0.44p pd=2.88u as=0.26p ps=1.52u w=1u l=0.4u
X98 dffrs_5.Qb avdd a_55630_3857# avss nfet_03v3 ad=0.44p pd=2.88u as=0.26p ps=1.52u w=1u l=0.4u
X99 a_10762_1160# B5 avdd avdd pfet_03v3 ad=1.32p pd=6.88u as=1.32p ps=6.88u w=3u l=0.5u
X100 a_19528_1361# load avss avss nfet_03v3 ad=0.44p pd=2.88u as=0.44p ps=2.88u w=1u l=0.5u
X101 a_39366_2781# load a_39178_3501# avss nfet_03v3 ad=0.26p pd=1.52u as=0.44p ps=2.88u w=1u l=0.5u
X102 avdd avdd a_35016_2511# avdd pfet_03v3 ad=0.65p pd=3.02u as=0.65p ps=3.02u w=2.5u l=0.4u
X103 a_16072_8265# avdd avss avss nfet_03v3 ad=0.26p pd=1.52u as=0.44p ps=2.88u w=1u l=0.4u
X104 a_25728_8266# a_25544_2511# a_25544_8266# avss nfet_03v3 ad=0.26p pd=1.52u as=0.26p ps=1.52u w=1u l=0.4u
X105 a_53880_5969# a_53880_3764# a_54144_8266# avss nfet_03v3 ad=0.44p pd=2.88u as=0.26p ps=1.52u w=1u l=0.4u
X106 dffrs_1.Q dffrs_1.Qb avdd avdd pfet_03v3 ad=1.1p pd=5.88u as=0.65p ps=3.02u w=2.5u l=0.4u
X107 a_6520_3763# clk a_6784_6060# avss nfet_03v3 ad=0.44p pd=2.88u as=0.26p ps=1.52u w=1u l=0.4u
X108 avdd clk a_34936_1559# avdd pfet_03v3 ad=0.65p pd=3.02u as=0.65p ps=3.02u w=2.5u l=0.4u
X109 avdd a_12318_2780# a_13178_2324# avdd pfet_03v3 ad=1.32p pd=6.88u as=0.78p ps=3.52u w=3u l=0.5u
X110 a_22462_1605# a_21790_441# avss avss nfet_03v3 ad=0.44p pd=2.88u as=0.44p ps=2.88u w=1u l=0.5u
X111 a_53880_5969# avdd avdd avdd pfet_03v3 ad=0.65p pd=3.02u as=1.1p ps=5.88u w=2.5u l=0.4u
X112 a_6520_5968# a_6520_3763# a_6784_8265# avss nfet_03v3 ad=0.44p pd=2.88u as=0.26p ps=1.52u w=1u l=0.4u
X113 serial_out dffrs_5.Qb a_55630_6061# avss nfet_03v3 ad=0.44p pd=2.88u as=0.26p ps=1.52u w=1u l=0.4u
X114 dffrs_3.Qb dffrs_3.Q avdd avdd pfet_03v3 ad=0.65p pd=3.02u as=1.1p ps=5.88u w=2.5u l=0.4u
X115 avss a_38472_1361# a_39366_441# avss nfet_03v3 ad=0.44p pd=2.88u as=0.26p ps=1.52u w=1u l=0.5u
X116 a_39366_441# B2 a_39178_1161# avss nfet_03v3 ad=0.26p pd=1.52u as=0.44p ps=2.88u w=1u l=0.5u
X117 dffrs_1.Qb avdd avdd avdd pfet_03v3 ad=1.1p pd=5.88u as=0.65p ps=3.02u w=2.5u l=0.4u
X118 serial_out avdd avdd avdd pfet_03v3 ad=0.65p pd=3.02u as=1.1p ps=5.88u w=2.5u l=0.4u
X119 a_16256_1650# avdd a_16072_1650# avss nfet_03v3 ad=0.26p pd=1.52u as=0.26p ps=1.52u w=1u l=0.4u
X120 a_44488_2511# 2inmux_5.OUT a_44672_1651# avss nfet_03v3 ad=0.44p pd=2.88u as=0.26p ps=1.52u w=1u l=0.4u
X121 a_6520_3763# a_6520_5968# avdd avdd pfet_03v3 ad=0.65p pd=3.02u as=1.1p ps=5.88u w=2.5u l=0.4u
X122 a_16256_3855# clk a_16072_3855# avss nfet_03v3 ad=0.26p pd=1.52u as=0.26p ps=1.52u w=1u l=0.4u
X123 a_44408_1559# a_44488_2511# a_44672_3856# avss nfet_03v3 ad=0.44p pd=2.88u as=0.26p ps=1.52u w=1u l=0.4u
X124 avss a_584_1360# a_1478_440# avss nfet_03v3 ad=0.44p pd=2.88u as=0.26p ps=1.52u w=1u l=0.5u
X125 a_17558_3856# dffrs_1.Q avss avss nfet_03v3 ad=0.26p pd=1.52u as=0.44p ps=2.88u w=1u l=0.4u
X126 avdd avdd a_53960_2511# avdd pfet_03v3 ad=0.65p pd=3.02u as=0.65p ps=3.02u w=2.5u l=0.4u
X127 a_48650_3501# load a_48838_2781# avss nfet_03v3 ad=0.44p pd=2.88u as=0.26p ps=1.52u w=1u l=0.5u
X128 a_41406_1605# a_40734_441# avss avss nfet_03v3 ad=0.44p pd=2.88u as=0.44p ps=2.88u w=1u l=0.5u
X129 avdd a_34936_3764# dffrs_3.Q avdd pfet_03v3 ad=0.65p pd=3.02u as=0.65p ps=3.02u w=2.5u l=0.4u
X130 avdd clk a_53880_1559# avdd pfet_03v3 ad=0.65p pd=3.02u as=0.65p ps=3.02u w=2.5u l=0.4u
X131 a_25544_2511# a_25464_1559# avdd avdd pfet_03v3 ad=0.65p pd=3.02u as=1.1p ps=5.88u w=2.5u l=0.4u
X132 a_25464_1559# a_25464_3764# avdd avdd pfet_03v3 ad=0.65p pd=3.02u as=1.1p ps=5.88u w=2.5u l=0.4u
X133 dffrs_5.Qb serial_out avdd avdd pfet_03v3 ad=0.65p pd=3.02u as=1.1p ps=5.88u w=2.5u l=0.4u
X134 a_12990_1604# a_12318_440# avss avss nfet_03v3 ad=0.44p pd=2.88u as=0.44p ps=2.88u w=1u l=0.5u
X135 2inmux_1.OUT a_50878_1605# avdd avdd pfet_03v3 ad=1.32p pd=6.88u as=1.32p ps=6.88u w=3u l=0.5u
X136 a_17558_6060# avdd avss avss nfet_03v3 ad=0.26p pd=1.52u as=0.44p ps=2.88u w=1u l=0.4u
X137 avss avss a_1478_2780# avss nfet_03v3 ad=0.44p pd=2.88u as=0.26p ps=1.52u w=1u l=0.5u
X138 a_22650_2325# a_21790_2781# avdd avdd pfet_03v3 ad=0.78p pd=3.52u as=1.32p ps=6.88u w=3u l=0.5u
X139 a_35016_2511# 2inmux_4.OUT avdd avdd pfet_03v3 ad=1.1p pd=5.88u as=0.65p ps=3.02u w=2.5u l=0.4u
X140 a_34936_1559# a_35016_2511# avdd avdd pfet_03v3 ad=1.1p pd=5.88u as=0.65p ps=3.02u w=2.5u l=0.4u
X141 2inmux_0.OUT a_3518_1604# avdd avdd pfet_03v3 ad=1.32p pd=6.88u as=1.32p ps=6.88u w=3u l=0.5u
X142 avss a_50206_2781# a_50878_1605# avss nfet_03v3 ad=0.44p pd=2.88u as=0.44p ps=2.88u w=1u l=0.5u
X143 a_40734_2781# a_39178_3501# avss avss nfet_03v3 ad=0.44p pd=2.88u as=0.44p ps=2.88u w=1u l=0.5u
X144 avdd a_34936_1559# dffrs_3.Qb avdd pfet_03v3 ad=0.65p pd=3.02u as=0.65p ps=3.02u w=2.5u l=0.4u
X145 a_20422_441# B4 a_20234_1161# avss nfet_03v3 ad=0.26p pd=1.52u as=0.44p ps=2.88u w=1u l=0.5u
X146 a_48838_2781# 2inmux_1.Bit avss avss nfet_03v3 ad=0.26p pd=1.52u as=0.44p ps=2.88u w=1u l=0.5u
X147 a_6520_5968# avdd avdd avdd pfet_03v3 ad=0.65p pd=3.02u as=1.1p ps=5.88u w=2.5u l=0.4u
X148 a_53960_1651# a_53880_1559# avss avss nfet_03v3 ad=0.26p pd=1.52u as=0.44p ps=2.88u w=1u l=0.4u
X149 a_53960_3856# a_53880_3764# avss avss nfet_03v3 ad=0.26p pd=1.52u as=0.44p ps=2.88u w=1u l=0.4u
X150 a_12318_440# a_10762_1160# avss avss nfet_03v3 ad=0.44p pd=2.88u as=0.44p ps=2.88u w=1u l=0.5u
X151 a_41406_1605# a_40734_441# a_41594_2325# avdd pfet_03v3 ad=1.32p pd=6.88u as=0.78p ps=3.52u w=3u l=0.5u
X152 a_48650_3501# load avdd avdd pfet_03v3 ad=1.32p pd=6.88u as=1.32p ps=6.88u w=3u l=0.5u
X153 a_29706_3501# load a_29894_2781# avss nfet_03v3 ad=0.44p pd=2.88u as=0.26p ps=1.52u w=1u l=0.5u
X154 avdd avdd a_6520_3763# avdd pfet_03v3 ad=0.65p pd=3.02u as=0.65p ps=3.02u w=2.5u l=0.4u
X155 a_35016_6061# a_34936_5969# avss avss nfet_03v3 ad=0.26p pd=1.52u as=0.44p ps=2.88u w=1u l=0.4u
X156 2inmux_2.Bit avdd avdd avdd pfet_03v3 ad=0.65p pd=3.02u as=1.1p ps=5.88u w=2.5u l=0.4u
X157 a_16072_2510# a_15992_1558# avdd avdd pfet_03v3 ad=0.65p pd=3.02u as=1.1p ps=5.88u w=2.5u l=0.4u
X158 a_10056_1360# load avss avss nfet_03v3 ad=0.44p pd=2.88u as=0.44p ps=2.88u w=1u l=0.5u
X159 a_53960_2511# 2inmux_1.OUT avdd avdd pfet_03v3 ad=1.1p pd=5.88u as=0.65p ps=3.02u w=2.5u l=0.4u
X160 a_35016_8266# avdd avss avss nfet_03v3 ad=0.26p pd=1.52u as=0.44p ps=2.88u w=1u l=0.4u
X161 a_15992_1558# a_15992_3763# avdd avdd pfet_03v3 ad=0.65p pd=3.02u as=1.1p ps=5.88u w=2.5u l=0.4u
X162 a_40734_2781# a_39178_3501# avdd avdd pfet_03v3 ad=1.32p pd=6.88u as=1.32p ps=6.88u w=3u l=0.5u
X163 avdd avdd a_25544_2511# avdd pfet_03v3 ad=0.65p pd=3.02u as=0.65p ps=3.02u w=2.5u l=0.4u
X164 a_41594_2325# a_40734_2781# avdd avdd pfet_03v3 ad=0.78p pd=3.52u as=1.32p ps=6.88u w=3u l=0.5u
X165 avdd a_31262_2781# a_32122_2325# avdd pfet_03v3 ad=1.32p pd=6.88u as=0.78p ps=3.52u w=3u l=0.5u
X166 avdd clk a_25464_1559# avdd pfet_03v3 ad=0.65p pd=3.02u as=0.65p ps=3.02u w=2.5u l=0.4u
X167 a_53880_1559# a_53960_2511# avdd avdd pfet_03v3 ad=1.1p pd=5.88u as=0.65p ps=3.02u w=2.5u l=0.4u
X168 avdd 2inmux_1.Bit a_48650_3501# avdd pfet_03v3 ad=1.32p pd=6.88u as=1.32p ps=6.88u w=3u l=0.5u
X169 a_6600_2510# 2inmux_0.OUT avdd avdd pfet_03v3 ad=1.1p pd=5.88u as=0.65p ps=3.02u w=2.5u l=0.4u
X170 a_584_1360# load avss avss nfet_03v3 ad=0.44p pd=2.88u as=0.44p ps=2.88u w=1u l=0.5u
X171 a_6520_1558# a_6600_2510# avdd avdd pfet_03v3 ad=1.1p pd=5.88u as=0.65p ps=3.02u w=2.5u l=0.4u
X172 dffrs_3.Qb avdd a_36686_3857# avss nfet_03v3 ad=0.44p pd=2.88u as=0.26p ps=1.52u w=1u l=0.4u
X173 avss dffrs_1.Q a_20422_2781# avss nfet_03v3 ad=0.44p pd=2.88u as=0.26p ps=1.52u w=1u l=0.5u
X174 2inmux_3.OUT a_22462_1605# avdd avdd pfet_03v3 ad=1.32p pd=6.88u as=1.32p ps=6.88u w=3u l=0.5u
X175 a_20234_1161# B4 avdd avdd pfet_03v3 ad=1.32p pd=6.88u as=1.32p ps=6.88u w=3u l=0.5u
X176 dffrs_0.Qb 2inmux_2.Bit avdd avdd pfet_03v3 ad=0.65p pd=3.02u as=1.1p ps=5.88u w=2.5u l=0.4u
X177 a_20234_1161# B4 a_20422_441# avss nfet_03v3 ad=0.44p pd=2.88u as=0.26p ps=1.52u w=1u l=0.5u
X178 dffrs_3.Q dffrs_3.Qb a_36686_6061# avss nfet_03v3 ad=0.44p pd=2.88u as=0.26p ps=1.52u w=1u l=0.4u
X179 a_12318_2780# a_10762_3500# avss avss nfet_03v3 ad=0.44p pd=2.88u as=0.44p ps=2.88u w=1u l=0.5u
X180 avdd a_6600_2510# a_6520_5968# avdd pfet_03v3 ad=0.65p pd=3.02u as=0.65p ps=3.02u w=2.5u l=0.4u
X181 a_29706_3501# load avdd avdd pfet_03v3 ad=1.32p pd=6.88u as=1.32p ps=6.88u w=3u l=0.5u
X182 avss a_2846_2780# a_3518_1604# avss nfet_03v3 ad=0.44p pd=2.88u as=0.44p ps=2.88u w=1u l=0.5u
X183 2inmux_5.OUT a_41406_1605# avss avss nfet_03v3 ad=0.44p pd=2.88u as=0.44p ps=2.88u w=1u l=0.5u
X184 a_44408_3764# a_44408_5969# avdd avdd pfet_03v3 ad=0.65p pd=3.02u as=1.1p ps=5.88u w=2.5u l=0.4u
X185 a_6600_1650# a_6520_1558# avss avss nfet_03v3 ad=0.26p pd=1.52u as=0.44p ps=2.88u w=1u l=0.4u
X186 a_50206_441# a_48650_1161# avdd avdd pfet_03v3 ad=1.32p pd=6.88u as=1.32p ps=6.88u w=3u l=0.5u
X187 a_2846_440# a_1290_1160# avdd avdd pfet_03v3 ad=1.32p pd=6.88u as=1.32p ps=6.88u w=3u l=0.5u
X188 avdd a_19528_1361# a_20234_1161# avdd pfet_03v3 ad=1.32p pd=6.88u as=1.32p ps=6.88u w=3u l=0.5u
X189 a_6600_3855# a_6520_3763# avss avss nfet_03v3 ad=0.26p pd=1.52u as=0.44p ps=2.88u w=1u l=0.4u
X190 a_3706_2324# a_2846_440# a_3518_1604# avdd pfet_03v3 ad=0.78p pd=3.52u as=1.32p ps=6.88u w=3u l=0.5u
X191 avss a_10056_1360# a_10950_440# avss nfet_03v3 ad=0.44p pd=2.88u as=0.26p ps=1.52u w=1u l=0.5u
X192 a_39178_1161# B2 a_39366_441# avss nfet_03v3 ad=0.44p pd=2.88u as=0.26p ps=1.52u w=1u l=0.5u
X193 a_20422_441# a_19528_1361# avss avss nfet_03v3 ad=0.26p pd=1.52u as=0.44p ps=2.88u w=1u l=0.5u
X194 a_10950_440# B5 a_10762_1160# avss nfet_03v3 ad=0.26p pd=1.52u as=0.44p ps=2.88u w=1u l=0.5u
X195 a_31934_1605# a_31262_441# avss avss nfet_03v3 ad=0.44p pd=2.88u as=0.44p ps=2.88u w=1u l=0.5u
X196 a_15992_3763# clk avdd avdd pfet_03v3 ad=1.1p pd=5.88u as=0.65p ps=3.02u w=2.5u l=0.4u
X197 2inmux_1.Bit dffrs_4.Qb avdd avdd pfet_03v3 ad=1.1p pd=5.88u as=0.65p ps=3.02u w=2.5u l=0.4u
X198 avdd a_2846_2780# a_3706_2324# avdd pfet_03v3 ad=1.32p pd=6.88u as=0.78p ps=3.52u w=3u l=0.5u
X199 a_40734_441# a_39178_1161# avss avss nfet_03v3 ad=0.44p pd=2.88u as=0.44p ps=2.88u w=1u l=0.5u
X200 a_39178_1161# B2 avdd avdd pfet_03v3 ad=1.32p pd=6.88u as=1.32p ps=6.88u w=3u l=0.5u
X201 a_8270_3856# a_6520_1558# a_8086_3856# avss nfet_03v3 ad=0.26p pd=1.52u as=0.26p ps=1.52u w=1u l=0.4u
X202 a_12318_2780# a_10762_3500# avdd avdd pfet_03v3 ad=1.32p pd=6.88u as=1.32p ps=6.88u w=3u l=0.5u
X203 a_13178_2324# a_12318_2780# avdd avdd pfet_03v3 ad=0.78p pd=3.52u as=1.32p ps=6.88u w=3u l=0.5u
X204 a_44408_5969# avdd avdd avdd pfet_03v3 ad=0.65p pd=3.02u as=1.1p ps=5.88u w=2.5u l=0.4u
X205 a_8270_6060# a_6520_3763# a_8086_6060# avss nfet_03v3 ad=0.26p pd=1.52u as=0.26p ps=1.52u w=1u l=0.4u
X206 2inmux_4.OUT a_31934_1605# avdd avdd pfet_03v3 ad=1.32p pd=6.88u as=1.32p ps=6.88u w=3u l=0.5u
X207 dffrs_4.Qb avdd avdd avdd pfet_03v3 ad=1.1p pd=5.88u as=0.65p ps=3.02u w=2.5u l=0.4u
X208 a_21790_2781# a_20234_3501# avss avss nfet_03v3 ad=0.44p pd=2.88u as=0.44p ps=2.88u w=1u l=0.5u
X209 a_29894_2781# dffrs_2.Q avss avss nfet_03v3 ad=0.26p pd=1.52u as=0.44p ps=2.88u w=1u l=0.5u
X210 avdd a_10056_1360# a_10762_1160# avdd pfet_03v3 ad=1.32p pd=6.88u as=1.32p ps=6.88u w=3u l=0.5u
X211 2inmux_2.OUT a_12990_1604# avss avss nfet_03v3 ad=0.44p pd=2.88u as=0.44p ps=2.88u w=1u l=0.5u
X212 a_31934_1605# a_31262_441# a_32122_2325# avdd pfet_03v3 ad=1.32p pd=6.88u as=0.78p ps=3.52u w=3u l=0.5u
X213 a_15992_5968# a_15992_3763# avdd avdd pfet_03v3 ad=1.1p pd=5.88u as=0.65p ps=3.02u w=2.5u l=0.4u
X214 a_6784_1650# avdd a_6600_1650# avss nfet_03v3 ad=0.26p pd=1.52u as=0.26p ps=1.52u w=1u l=0.4u
X215 a_19528_1361# load avdd avdd pfet_03v3 ad=1.32p pd=6.88u as=1.32p ps=6.88u w=3u l=0.5u
X216 a_22650_2325# a_21790_441# a_22462_1605# avdd pfet_03v3 ad=0.78p pd=3.52u as=1.32p ps=6.88u w=3u l=0.5u
X217 a_6784_3855# clk a_6600_3855# avss nfet_03v3 ad=0.26p pd=1.52u as=0.26p ps=1.52u w=1u l=0.4u
X218 a_1290_3500# load a_1478_2780# avss nfet_03v3 ad=0.44p pd=2.88u as=0.26p ps=1.52u w=1u l=0.5u
X219 a_35016_2511# a_34936_1559# avdd avdd pfet_03v3 ad=0.65p pd=3.02u as=1.1p ps=5.88u w=2.5u l=0.4u
X220 avdd avdd a_34936_3764# avdd pfet_03v3 ad=0.65p pd=3.02u as=0.65p ps=3.02u w=2.5u l=0.4u
X221 a_34936_1559# a_34936_3764# avdd avdd pfet_03v3 ad=0.65p pd=3.02u as=1.1p ps=5.88u w=2.5u l=0.4u
X222 a_44672_6061# avdd a_44488_6061# avss nfet_03v3 ad=0.26p pd=1.52u as=0.26p ps=1.52u w=1u l=0.4u
X223 a_38472_1361# load avss avss nfet_03v3 ad=0.44p pd=2.88u as=0.44p ps=2.88u w=1u l=0.5u
X224 a_44672_8266# a_44488_2511# a_44488_8266# avss nfet_03v3 ad=0.26p pd=1.52u as=0.26p ps=1.52u w=1u l=0.4u
X225 dffrs_0.Qb avdd a_8270_3856# avss nfet_03v3 ad=0.44p pd=2.88u as=0.26p ps=1.52u w=1u l=0.4u