* NGSPICE file created from comp_SAR_final.ext - technology: (null)

.subckt comp_SAR_final Clk_piso Vdd Vss Load Clk Piso_out Vin1 Vin2 Comp_out Reset SAR_in
X0 Vdd.t900 SARlogic_0.d3.t4 SARlogic_0.dffrs_7.nand3_8.C.t3 Vdd.t899 pfet_03v3
**devattr s=26000,604 d=26000,604
X1 a_5803_9634 SARlogic_0.dffrs_4.d.t4 Vss.t619 Vss.t618 nfet_03v3
**devattr s=17600,576 d=10400,304
X2 adc_PISO_0.dffrs_4.Qb Vdd.t730 Vdd.t732 Vdd.t731 pfet_03v3
**devattr s=26000,604 d=44000,1176
X3 SARlogic_0.dffrs_12.nand3_1.C SARlogic_0.dffrs_12.nand3_6.C.t4 Vdd.t928 Vdd.t927 pfet_03v3
**devattr s=26000,604 d=44000,1176
X4 a_37687_30440 inv2_0.out.t2 a_37499_31160.t2 Vss.t549 nfet_03v3
**devattr s=17600,576 d=10400,304
X5 a_n7937_n2793 a_n8017_n2885 a_n9429_n2007.t0 Vss.t116 nfet_03v3
**devattr s=8320,264 d=14080,496
X6 a_28027_28820.t2 SARlogic_0.d1.t4 Vdd.t804 Vdd.t803 pfet_03v3
**devattr s=52800,1376 d=52800,1376
X7 Vss.t543 a_8377_29020 a_9271_28100 Vss.t542 nfet_03v3
**devattr s=10400,304 d=17600,576
X8 Vdd.t519 Reset.t0 SARlogic_0.dffrs_14.nand3_6.C.t1 Vdd.t518 pfet_03v3
**devattr s=26000,604 d=26000,604
X9 a_n7809_21417 SARlogic_0.dffrs_14.nand3_1.C Vss.t56 Vss.t55 nfet_03v3
**devattr s=17600,576 d=10400,304
X10 SARlogic_0.dffrs_2.nand3_1.C.t3 SARlogic_0.dffrs_2.nand3_6.C.t4 a_459_14043 Vss.t381 nfet_03v3
**devattr s=10400,304 d=17600,576
X11 SARlogic_0.d3.t3 SARlogic_0.dffrs_1.Qb.t4 Vdd.t491 Vdd.t490 pfet_03v3
**devattr s=44000,1176 d=26000,604
X12 SARlogic_0.dffrs_4.nand3_8.C.t0 SARlogic_0.dffrs_4.nand3_8.Z.t4 a_8543_9633 Vss.t334 nfet_03v3
**devattr s=10400,304 d=17600,576
X13 Vdd.t443 SARlogic_0.dffrs_1.nand3_8.C.t4 SARlogic_0.dffrs_1.Qb.t3 Vdd.t442 pfet_03v3
**devattr s=26000,604 d=26000,604
X14 adc_PISO_0.dffrs_0.Qb Vdd.t727 Vdd.t729 Vdd.t728 pfet_03v3
**devattr s=26000,604 d=44000,1176
X15 a_12401_7428 SARlogic_0.dffrs_5.nand3_8.C.t4 Vss.t404 Vss.t403 nfet_03v3
**devattr s=17600,576 d=10400,304
X16 SARlogic_0.dffrs_3.nand3_8.C.t1 SARlogic_0.dffrs_3.nand3_8.Z.t4 Vdd.t551 Vdd.t550 pfet_03v3
**devattr s=26000,604 d=44000,1176
X17 Vdd.t726 Vdd.t724 a_33257_31423.t0 Vdd.t725 pfet_03v3
**devattr s=26000,604 d=26000,604
X18 SARlogic_0.dffrs_5.nand3_8.C.t3 SARlogic_0.dffrs_5.nand3_6.C.t4 Vdd.t922 Vdd.t921 pfet_03v3
**devattr s=44000,1176 d=26000,604
X19 a_14071_9634 SARlogic_0.dffrs_5.nand3_8.C.t5 a_13887_9634 Vss.t405 nfet_03v3
**devattr s=10400,304 d=10400,304
X20 SARlogic_0.dffrs_1.Qb.t2 Reset.t1 Vdd.t449 Vdd.t448 pfet_03v3
**devattr s=26000,604 d=44000,1176
X21 a_18113_19210 SARlogic_0.dffrs_12.nand3_8.C.t4 a_17929_19210 Vss.t413 nfet_03v3
**devattr s=10400,304 d=10400,304
X22 Vdd.t391 comparator_no_offsetcal_0.no_offsetLatch_0.Vout1.t9 comparator_no_offsetcal_0.no_offsetLatch_0.Vout2.t8 Vdd.t390 pfet_03v3
**devattr s=10400,304 d=10400,304
X23 a_10029_9634 SARlogic_0.dffrs_4.nand3_8.C.t4 a_9845_9634 Vss.t396 nfet_03v3
**devattr s=10400,304 d=10400,304
X24 SARlogic_0.dffrs_1.nand3_6.C.t1 Clk.t0 a_n3583_11838 Vss.t48 nfet_03v3
**devattr s=10400,304 d=17600,576
X25 a_n4367_29309 Vdd.t945 a_n4551_29309 Vss.t523 nfet_03v3
**devattr s=10400,304 d=10400,304
X26 SARlogic_0.dffrs_9.Qb SARlogic_0.d2.t4 Vdd.t291 Vdd.t290 pfet_03v3
**devattr s=44000,1176 d=26000,604
X27 a_4841_33627.t3 a_4841_31422.t4 Vdd.t347 Vdd.t346 pfet_03v3
**devattr s=26000,604 d=44000,1176
X28 Vdd.t511 adc_PISO_0.2inmux_1.Bit.t4 a_37499_31160.t0 Vdd.t510 pfet_03v3
**devattr s=52800,1376 d=52800,1376
X29 SARlogic_0.dffrs_5.nand3_6.C.t2 SARlogic_0.dffrs_5.nand3_1.C.t4 Vdd.t239 Vdd.t238 pfet_03v3
**devattr s=44000,1176 d=26000,604
X30 SARlogic_0.dffrs_4.d.t3 Vdd.t721 Vdd.t723 Vdd.t722 pfet_03v3
**devattr s=44000,1176 d=26000,604
X31 SARlogic_0.dffrs_3.nand3_6.C.t2 Clk.t1 Vdd.t65 Vdd.t64 pfet_03v3
**devattr s=26000,604 d=44000,1176
X32 Vdd.t451 Reset.t2 SARlogic_0.dffrs_10.nand3_8.Z Vdd.t450 pfet_03v3
**devattr s=26000,604 d=26000,604
X33 Vdd.t822 a_33337_30170.t4 a_33257_33628.t2 Vdd.t821 pfet_03v3
**devattr s=26000,604 d=26000,604
X34 SARlogic_0.dffrs_13.Qb.t1 SARlogic_0.dffrs_0.d.t4 Vdd.t794 Vdd.t793 pfet_03v3
**devattr s=44000,1176 d=26000,604
X35 Vdd.t790 a_n10831_4320 Comp_out.t7 Vdd.t789 pfet_03v3
**devattr s=18700,450 d=18700,450
X36 a_10639_28100 a_9083_28820.t4 Vdd.t914 Vdd.t913 pfet_03v3
**devattr s=52800,1376 d=52800,1376
X37 a_5987_21414 SARlogic_0.dffrs_9.nand3_6.C.t4 a_5803_21414 Vss.t656 nfet_03v3
**devattr s=10400,304 d=10400,304
X38 a_275_7428 SARlogic_0.dffrs_2.nand3_8.C.t4 Vss.t666 Vss.t665 nfet_03v3
**devattr s=17600,576 d=10400,304
X39 adc_PISO_0.2inmux_5.OUT.t0 a_30255_29264.t4 Vss.t201 Vss.t200 nfet_03v3
**devattr s=17600,576 d=17600,576
X40 SARlogic_0.dffrs_10.nand3_6.C.t3 SARlogic_0.d0.t4 Vdd.t259 Vdd.t258 pfet_03v3
**devattr s=26000,604 d=44000,1176
X41 SARlogic_0.d1.t1 SARlogic_0.dffrs_3.Qb.t4 Vdd.t395 Vdd.t394 pfet_03v3
**devattr s=44000,1176 d=26000,604
X42 a_12585_21414 Reset.t3 a_12401_21414 Vss.t348 nfet_03v3
**devattr s=10400,304 d=10400,304
X43 SARlogic_0.dffrs_3.Qb.t0 Reset.t4 a_5987_9634 Vss.t349 nfet_03v3
**devattr s=10400,304 d=17600,576
X44 SARlogic_0.dffrs_12.nand3_6.C.t0 SARlogic_0.dffrs_12.nand3_1.C Vdd.t103 Vdd.t102 pfet_03v3
**devattr s=44000,1176 d=26000,604
X45 SARlogic_0.dffrs_1.Qb.t1 Reset.t5 a_n2097_9634 Vss.t350 nfet_03v3
**devattr s=10400,304 d=17600,576
X46 a_n11637_11838 Vdd.t946 a_n11821_11838 Vss.t522 nfet_03v3
**devattr s=10400,304 d=10400,304
X47 a_n4551_35924 Vdd.t947 Vss.t521 Vss.t520 nfet_03v3
**devattr s=17600,576 d=10400,304
X48 SARlogic_0.dffrs_4.nand3_8.Z.t1 SARlogic_0.dffrs_4.nand3_8.C.t5 Vdd.t521 Vdd.t520 pfet_03v3
**devattr s=44000,1176 d=26000,604
X49 a_1761_19210 SARlogic_0.d3.t5 Vss.t643 Vss.t642 nfet_03v3
**devattr s=17600,576 d=10400,304
X50 a_14393_33720 a_14313_33628.t4 Vss.t267 Vss.t266 nfet_03v3
**devattr s=17600,576 d=10400,304
X51 a_9271_28100 SARlogic_0.d3.t6 a_9083_28820.t2 Vss.t641 nfet_03v3
**devattr s=17600,576 d=10400,304
X52 SARlogic_0.dffrs_10.nand3_1.C SARlogic_0.dffrs_10.nand3_6.C.t4 Vdd.t125 Vdd.t124 pfet_03v3
**devattr s=26000,604 d=44000,1176
X53 SARlogic_0.dffrs_12.nand3_1.C SARlogic_0.dffrs_5.Qb.t4 Vdd.t427 Vdd.t426 pfet_03v3
**devattr s=44000,1176 d=26000,604
X54 a_12585_23619 SARlogic_0.dffrs_11.nand3_8.Z a_12401_23619 Vss.t135 nfet_03v3
**devattr s=10400,304 d=10400,304
X55 adc_PISO_0.dffrs_1.Qb adc_PISO_0.dffrs_1.Q.t4 Vdd.t267 Vdd.t266 pfet_03v3
**devattr s=44000,1176 d=26000,604
X56 Vdd.t483 SARlogic_0.dffrs_14.nand3_6.C.t4 SARlogic_0.d5.t0 Vdd.t482 pfet_03v3
**devattr s=26000,604 d=26000,604
X57 a_275_14043 Vdd.t948 Vss.t519 Vss.t518 nfet_03v3
**devattr s=17600,576 d=10400,304
X58 a_33257_29218.t2 a_33337_30170.t5 a_33521_31515 Vss.t589 nfet_03v3
**devattr s=10400,304 d=17600,576
X59 SARlogic_0.dffrs_0.Qb.t3 Reset.t6 a_n6139_9634 Vss.t351 nfet_03v3
**devattr s=10400,304 d=17600,576
X60 a_14393_35925 Vdd.t949 Vss.t517 Vss.t516 nfet_03v3
**devattr s=17600,576 d=10400,304
X61 SARlogic_0.dffrs_3.nand3_8.C.t2 SARlogic_0.dffrs_3.nand3_6.C.t4 Vdd.t433 Vdd.t432 pfet_03v3
**devattr s=44000,1176 d=26000,604
X62 a_9083_31160.t3 inv2_0.out.t3 a_9271_30440 Vss.t550 nfet_03v3
**devattr s=10400,304 d=17600,576
X63 a_23865_30170.t0 a_23785_29218.t4 Vdd.t181 Vdd.t180 pfet_03v3
**devattr s=44000,1176 d=26000,604
X64 a_18743_28100 a_17849_29020 Vss.t74 Vss.t73 nfet_03v3
**devattr s=17600,576 d=10400,304
X65 a_9845_19210 SARlogic_0.d1.t5 Vss.t583 Vss.t582 nfet_03v3
**devattr s=17600,576 d=10400,304
X66 SARlogic_0.dffrs_3.nand3_6.C.t3 SARlogic_0.dffrs_3.nand3_1.C.t4 Vdd.t189 Vdd.t188 pfet_03v3
**devattr s=44000,1176 d=26000,604
X67 a_42729_31423.t1 a_42729_33628.t4 Vdd.t131 Vdd.t130 pfet_03v3
**devattr s=44000,1176 d=26000,604
X68 a_29583_30440 a_28027_31160.t4 Vdd.t846 Vdd.t845 pfet_03v3
**devattr s=52800,1376 d=52800,1376
X69 SARlogic_0.dffrs_13.Qb.t3 Vdd.t718 Vdd.t720 Vdd.t719 pfet_03v3
**devattr s=26000,604 d=44000,1176
X70 a_23785_29218.t2 a_23785_31423.t4 Vdd.t864 Vdd.t863 pfet_03v3
**devattr s=44000,1176 d=26000,604
X71 Vdd.t101 a_20111_30440 a_20971_29984 Vdd.t100 pfet_03v3
**devattr s=31200,704 d=52800,1376
X72 a_n9429_n2007.t16 Vin1.t0 comparator_no_offsetcal_0.no_offsetLatch_0.Vp.t16 Vss.t181 nfet_03v3
**devattr s=15600,404 d=15600,404
X73 a_28027_31160.t2 inv2_0.out.t4 a_28215_30440 Vss.t551 nfet_03v3
**devattr s=10400,304 d=17600,576
X74 SARlogic_0.dffrs_10.nand3_6.C.t1 SARlogic_0.dffrs_10.nand3_1.C Vdd.t109 Vdd.t108 pfet_03v3
**devattr s=44000,1176 d=26000,604
X75 a_42729_33628.t1 Vdd.t715 Vdd.t717 Vdd.t716 pfet_03v3
**devattr s=44000,1176 d=26000,604
X76 a_n4631_33627.t0 a_n4631_31422.t4 a_n4367_35924 Vss.t524 nfet_03v3
**devattr s=10400,304 d=17600,576
X77 a_12401_17004 SARlogic_0.dffrs_11.nand3_8.C.t4 Vss.t167 Vss.t166 nfet_03v3
**devattr s=17600,576 d=10400,304
X78 SARlogic_0.dffrs_9.nand3_8.Z SAR_in.t0 a_4501_17004 Vss.t423 nfet_03v3
**devattr s=10400,304 d=17600,576
X79 a_n8305_30439 a_n9861_31159.t4 Vdd.t319 Vdd.t318 pfet_03v3
**devattr s=52800,1376 d=52800,1376
X80 a_n6139_19213 SARlogic_0.dffrs_14.nand3_8.C.t4 a_n6323_19213 Vss.t532 nfet_03v3
**devattr s=10400,304 d=10400,304
X81 a_n201_28099 a_n1095_29019 Vss.t64 Vss.t63 nfet_03v3
**devattr s=17600,576 d=10400,304
X82 SARlogic_0.dffrs_10.nand3_1.C SARlogic_0.dffrs_3.Qb.t5 Vdd.t397 Vdd.t396 pfet_03v3
**devattr s=44000,1176 d=26000,604
X83 SARlogic_0.d1.t3 SARlogic_0.dffrs_10.Qb Vdd.t750 Vdd.t749 pfet_03v3
**devattr s=26000,604 d=44000,1176
X84 Vdd.t714 Vdd.t712 SARlogic_0.dffrs_13.nand3_8.Z.t2 Vdd.t713 pfet_03v3
**devattr s=26000,604 d=26000,604
X85 SARlogic_0.dffrs_5.Qb.t1 Reset.t7 Vdd.t453 Vdd.t452 pfet_03v3
**devattr s=26000,604 d=44000,1176
X86 a_1167_30439 a_n389_31159.t4 Vdd.t201 Vdd.t200 pfet_03v3
**devattr s=52800,1376 d=52800,1376
X87 SARlogic_0.dffrs_9.nand3_8.C.t1 SARlogic_0.dffrs_9.nand3_8.Z a_4501_19209 Vss.t127 nfet_03v3
**devattr s=10400,304 d=17600,576
X88 SARlogic_0.dffrs_0.nand3_8.C.t3 SARlogic_0.dffrs_0.nand3_6.C.t4 Vdd.t565 Vdd.t564 pfet_03v3
**devattr s=44000,1176 d=26000,604
X89 a_12401_19209 SARlogic_0.dffrs_11.nand3_6.C.t4 Vss.t428 Vss.t427 nfet_03v3
**devattr s=17600,576 d=10400,304
X90 a_33337_31515 a_33257_31423.t4 Vss.t529 Vss.t528 nfet_03v3
**devattr s=17600,576 d=10400,304
X91 SARlogic_0.dffrs_14.nand3_1.C SARlogic_0.dffrs_13.Qb.t4 Vdd.t936 Vdd.t935 pfet_03v3
**devattr s=44000,1176 d=26000,604
X92 SARlogic_0.dffrs_3.nand3_8.C.t0 SARlogic_0.dffrs_3.nand3_8.Z.t5 a_4501_9633 Vss.t418 nfet_03v3
**devattr s=10400,304 d=17600,576
X93 a_10639_30440 a_9083_31160.t4 Vss.t608 Vss.t607 nfet_03v3
**devattr s=17600,576 d=17600,576
X94 Vdd.t529 SARlogic_0.dffrs_5.nand3_8.C.t6 SARlogic_0.dffrs_5.Qb.t3 Vdd.t528 pfet_03v3
**devattr s=26000,604 d=26000,604
X95 Vss.t131 a_29583_30440 a_30255_29264.t0 Vss.t130 nfet_03v3
**devattr s=17600,576 d=17600,576
X96 Vss.t389 adc_PISO_0.2inmux_1.Bit.t5 a_37687_30440 Vss.t388 nfet_03v3
**devattr s=10400,304 d=17600,576
X97 SARlogic_0.dffrs_8.nand3_6.C.t2 SARlogic_0.d2.t5 Vdd.t293 Vdd.t292 pfet_03v3
**devattr s=26000,604 d=44000,1176
X98 Vdd.t97 a_n1095_29019 a_n389_28819.t0 Vdd.t96 pfet_03v3
**devattr s=52800,1376 d=52800,1376
X99 Vss.t636 a_1167_30439 a_1839_29263.t3 Vss.t635 nfet_03v3
**devattr s=17600,576 d=17600,576
X100 a_5987_9634 SARlogic_0.dffrs_3.nand3_8.C.t4 a_5803_9634 Vss.t77 nfet_03v3
**devattr s=10400,304 d=10400,304
X101 SARlogic_0.dffrs_0.nand3_6.C.t3 SARlogic_0.dffrs_0.nand3_1.C.t4 Vdd.t597 Vdd.t596 pfet_03v3
**devattr s=44000,1176 d=26000,604
X102 SARlogic_0.dffrs_5.nand3_1.C.t3 Vdd.t709 Vdd.t711 Vdd.t710 pfet_03v3
**devattr s=44000,1176 d=26000,604
X103 SARlogic_0.dffrs_3.nand3_1.C.t2 SARlogic_0.dffrs_3.nand3_6.C.t5 Vdd.t435 Vdd.t434 pfet_03v3
**devattr s=26000,604 d=44000,1176
X104 a_20971_29984 a_20111_28100 a_20783_29264.t2 Vdd.t135 pfet_03v3
**devattr s=52800,1376 d=31200,704
X105 a_n3065_31515 adc_PISO_0.2inmux_2.Bit.t4 Vss.t24 Vss.t23 nfet_03v3
**devattr s=17600,576 d=10400,304
X106 SARlogic_0.dffrs_12.Q.t3 SARlogic_0.dffrs_12.Qb Vdd.t507 Vdd.t506 pfet_03v3
**devattr s=26000,604 d=44000,1176
X107 SARlogic_0.dffrs_12.nand3_8.Z Vss.t677 Vdd.t5 Vdd.t4 pfet_03v3
**devattr s=26000,604 d=44000,1176
X108 a_4921_30169.t0 adc_PISO_0.2inmux_2.OUT.t2 a_5105_29309 Vss.t125 nfet_03v3
**devattr s=10400,304 d=17600,576
X109 Vdd.t331 a_27321_29020 a_28027_28820.t3 Vdd.t330 pfet_03v3
**devattr s=52800,1376 d=52800,1376
X110 SARlogic_0.dffrs_8.nand3_1.C SARlogic_0.dffrs_8.nand3_6.C.t4 Vdd.t41 Vdd.t40 pfet_03v3
**devattr s=26000,604 d=44000,1176
X111 a_n2881_31515 a_n4631_29217.t4 a_n3065_31515 Vss.t673 nfet_03v3
**devattr s=10400,304 d=10400,304
X112 a_12585_7428 Reset.t8 a_12401_7428 Vss.t352 nfet_03v3
**devattr s=10400,304 d=10400,304
X113 SARlogic_0.dffrs_10.Qb Reset.t9 a_10029_19210 Vss.t353 nfet_03v3
**devattr s=10400,304 d=17600,576
X114 a_17849_29020 inv2_0.out.t5 Vdd.t766 Vdd.t765 pfet_03v3
**devattr s=52800,1376 d=52800,1376
X115 SARlogic_0.dffrs_3.nand3_8.Z.t1 SARlogic_0.dffrs_3.nand3_8.C.t5 Vdd.t111 Vdd.t110 pfet_03v3
**devattr s=44000,1176 d=26000,604
X116 a_4317_17004 SARlogic_0.dffrs_9.nand3_8.C.t4 Vss.t34 Vss.t33 nfet_03v3
**devattr s=17600,576 d=10400,304
X117 Vdd.t455 Reset.t10 SARlogic_0.dffrs_14.nand3_8.Z Vdd.t454 pfet_03v3
**devattr s=26000,604 d=26000,604
X118 SARlogic_0.dffrs_7.nand3_8.C.t2 SARlogic_0.dffrs_7.nand3_6.C.t4 Vdd.t798 Vdd.t797 pfet_03v3
**devattr s=44000,1176 d=26000,604
X119 SARlogic_0.d3.t1 SARlogic_0.dffrs_8.Qb Vdd.t241 Vdd.t240 pfet_03v3
**devattr s=26000,604 d=44000,1176
X120 Vdd.t279 comparator_no_offsetcal_0.no_offsetLatch_0.Vout2.t9 comparator_no_offsetcal_0.no_offsetLatch_0.Vout1.t2 Vdd.t278 pfet_03v3
**devattr s=10400,304 d=10400,304
X121 a_14393_30170.t1 adc_PISO_0.2inmux_3.OUT.t2 Vdd.t884 Vdd.t883 pfet_03v3
**devattr s=26000,604 d=44000,1176
X122 Vdd.t43 SARlogic_0.dffrs_8.nand3_6.C.t5 SARlogic_0.d3.t0 Vdd.t42 pfet_03v3
**devattr s=26000,604 d=26000,604
X123 a_4317_19209 SARlogic_0.dffrs_9.nand3_6.C.t5 Vss.t658 Vss.t657 nfet_03v3
**devattr s=17600,576 d=10400,304
X124 a_459_7428 Reset.t11 a_275_7428 Vss.t354 nfet_03v3
**devattr s=10400,304 d=10400,304
X125 a_n9429_n2007.t1 Vin2.t0 comparator_no_offsetcal_0.no_offsetLatch_0.Vq Vss.t178 nfet_03v3
**devattr s=15600,404 d=15600,404
X126 Vdd.t67 Clk.t2 SARlogic_0.dffrs_5.nand3_8.C.t0 Vdd.t66 pfet_03v3
**devattr s=26000,604 d=26000,604
X127 a_33257_31423.t2 Clk_piso.t0 Vdd.t852 Vdd.t851 pfet_03v3
**devattr s=26000,604 d=44000,1176
X128 adc_PISO_0.2inmux_1.Bit.t1 Vdd.t706 Vdd.t708 Vdd.t707 pfet_03v3
**devattr s=44000,1176 d=26000,604
X129 SARlogic_0.dffrs_8.nand3_6.C.t3 SARlogic_0.dffrs_8.nand3_1.C Vdd.t329 Vdd.t328 pfet_03v3
**devattr s=44000,1176 d=26000,604
X130 SARlogic_0.dffrs_12.Qb Reset.t12 a_18113_19210 Vss.t355 nfet_03v3
**devattr s=10400,304 d=17600,576
X131 a_14313_29218.t1 a_14393_30170.t4 Vdd.t854 Vdd.t853 pfet_03v3
**devattr s=26000,604 d=44000,1176
X132 comparator_no_offsetcal_0.no_offsetLatch_0.Vout2.t0 a_n7971_249 a_n8059_341 Vss.t303 nfet_03v3
**devattr s=35200,976 d=20800,504
X133 SARlogic_0.dffrs_3.nand3_1.C.t3 Vdd.t703 Vdd.t705 Vdd.t704 pfet_03v3
**devattr s=44000,1176 d=26000,604
X134 Vdd.t45 SARlogic_0.dffrs_9.nand3_8.C.t5 SARlogic_0.dffrs_9.Qb Vdd.t44 pfet_03v3
**devattr s=26000,604 d=26000,604
X135 SARlogic_0.dffrs_5.nand3_6.C.t0 Clk.t3 a_12585_11838 Vss.t49 nfet_03v3
**devattr s=10400,304 d=17600,576
X136 Vdd.t457 Reset.t13 SARlogic_0.dffrs_5.nand3_6.C.t1 Vdd.t456 pfet_03v3
**devattr s=26000,604 d=26000,604
X137 Vdd.t437 SARlogic_0.dffrs_3.nand3_6.C.t6 SARlogic_0.dffrs_4.d.t2 Vdd.t436 pfet_03v3
**devattr s=26000,604 d=26000,604
X138 SARlogic_0.dffrs_12.nand3_8.Z SARlogic_0.dffrs_12.nand3_8.C.t5 Vdd.t509 Vdd.t508 pfet_03v3
**devattr s=44000,1176 d=26000,604
X139 SARlogic_0.dffrs_10.nand3_8.Z SAR_in.t1 Vdd.t557 Vdd.t556 pfet_03v3
**devattr s=26000,604 d=44000,1176
X140 a_33257_33628.t1 a_33257_31423.t5 Vdd.t740 Vdd.t739 pfet_03v3
**devattr s=26000,604 d=44000,1176
X141 a_6591_31515 a_4841_29217.t4 a_6407_31515 Vss.t176 nfet_03v3
**devattr s=10400,304 d=10400,304
X142 SARlogic_0.dffrs_8.nand3_1.C SARlogic_0.dffrs_1.Qb.t5 Vdd.t493 Vdd.t492 pfet_03v3
**devattr s=44000,1176 d=26000,604
X143 SARlogic_0.dffrs_14.nand3_6.C.t3 SARlogic_0.d4.t4 a_n7625_21417 Vss.t616 nfet_03v3
**devattr s=10400,304 d=17600,576
X144 a_n6323_21417 SARlogic_0.dffrs_13.Qb.t5 Vss.t669 Vss.t668 nfet_03v3
**devattr s=17600,576 d=10400,304
X145 a_13887_21414 SARlogic_0.dffrs_4.Qb.t4 Vss.t247 Vss.t246 nfet_03v3
**devattr s=17600,576 d=10400,304
X146 Vdd.t127 SARlogic_0.dffrs_10.nand3_6.C.t5 SARlogic_0.d1.t0 Vdd.t126 pfet_03v3
**devattr s=26000,604 d=26000,604
X147 Vdd.t459 Reset.t14 SARlogic_0.dffrs_12.nand3_6.C.t3 Vdd.t458 pfet_03v3
**devattr s=26000,604 d=26000,604
X148 comparator_no_offsetcal_0.no_offsetLatch_0.Vq Vin2.t1 a_n9429_n2007.t2 Vss.t179 nfet_03v3
**devattr s=15600,404 d=15600,404
X149 a_n3583_9633 Clk.t4 a_n3767_9633 Vss.t50 nfet_03v3
**devattr s=10400,304 d=10400,304
X150 a_n6139_9634 SARlogic_0.dffrs_0.nand3_8.C.t4 a_n6323_9634 Vss.t10 nfet_03v3
**devattr s=10400,304 d=10400,304
X151 SARlogic_0.dffrs_8.Qb Reset.t15 a_1945_19210 Vss.t356 nfet_03v3
**devattr s=10400,304 d=17600,576
X152 a_44295_33720 Vdd.t950 Vss.t515 Vss.t514 nfet_03v3
**devattr s=17600,576 d=10400,304
X153 a_n7445_29983 a_n8305_30439 Vdd.t165 Vdd.t164 pfet_03v3
**devattr s=52800,1376 d=31200,704
X154 a_23785_29218.t0 a_23865_30170.t4 a_24049_31515 Vss.t120 nfet_03v3
**devattr s=10400,304 d=17600,576
X155 a_1945_19210 SARlogic_0.dffrs_8.nand3_8.C.t4 a_1761_19210 Vss.t249 nfet_03v3
**devattr s=10400,304 d=10400,304
X156 a_5105_35924 a_4921_30169.t4 a_4921_35924 Vss.t216 nfet_03v3
**devattr s=10400,304 d=10400,304
X157 a_n201_30439 adc_PISO_0.2inmux_2.Bit.t5 Vss.t26 Vss.t25 nfet_03v3
**devattr s=17600,576 d=10400,304
X158 Vdd.t760 SARlogic_0.dffrs_12.nand3_8.Z SARlogic_0.dffrs_12.nand3_1.C Vdd.t759 pfet_03v3
**devattr s=26000,604 d=26000,604
X159 SARlogic_0.dffrs_7.nand3_8.C.t0 SARlogic_0.dffrs_7.nand3_8.Z Vdd.t211 Vdd.t210 pfet_03v3
**devattr s=26000,604 d=44000,1176
X160 a_4501_11838 Reset.t16 a_4317_11838 Vss.t357 nfet_03v3
**devattr s=10400,304 d=10400,304
X161 a_42993_33720 Vdd.t951 a_42809_33720 Vss.t513 nfet_03v3
**devattr s=10400,304 d=10400,304
X162 a_4921_35924 Vdd.t952 Vss.t512 Vss.t511 nfet_03v3
**devattr s=17600,576 d=10400,304
X163 adc_PISO_0.dffrs_4.Qb adc_PISO_0.2inmux_1.Bit.t6 Vdd.t513 Vdd.t512 pfet_03v3
**devattr s=44000,1176 d=26000,604
X164 a_459_14043 SARlogic_0.dffrs_2.nand3_8.Z.t4 a_275_14043 Vss.t164 nfet_03v3
**devattr s=10400,304 d=10400,304
X165 a_28215_30440 adc_PISO_0.dffrs_3.Q.t4 Vss.t187 Vss.t186 nfet_03v3
**devattr s=17600,576 d=10400,304
X166 a_39727_29264.t2 a_39055_28100 a_39915_29984 Vdd.t389 pfet_03v3
**devattr s=31200,704 d=52800,1376
X167 a_8543_21414 Reset.t17 a_8359_21414 Vss.t358 nfet_03v3
**devattr s=10400,304 d=10400,304
X168 a_n7809_9633 SARlogic_0.dffrs_0.nand3_6.C.t5 Vss.t42 Vss.t41 nfet_03v3
**devattr s=17600,576 d=10400,304
X169 comparator_no_offsetcal_0.no_offsetLatch_0.Vq a_n9933_n2099 a_n10021_n2007 Vss.t368 nfet_03v3
**devattr s=26400,776 d=15600,404
X170 SARlogic_0.dffrs_0.nand3_1.C.t1 Vdd.t700 Vdd.t702 Vdd.t701 pfet_03v3
**devattr s=44000,1176 d=26000,604
X171 a_n7809_17007 SARlogic_0.dffrs_14.nand3_8.C.t5 Vss.t534 Vss.t533 nfet_03v3
**devattr s=17600,576 d=10400,304
X172 a_42993_35925 a_42809_30170.t4 a_42809_35925 Vss.t258 nfet_03v3
**devattr s=10400,304 d=10400,304
X173 a_33257_31423.t1 a_33257_33628.t4 Vdd.t796 Vdd.t795 pfet_03v3
**devattr s=44000,1176 d=26000,604
X174 a_28215_28100 SARlogic_0.d1.t6 a_28027_28820.t1 Vss.t584 nfet_03v3
**devattr s=17600,576 d=10400,304
X175 Vdd.t699 Vdd.t697 a_23865_30170.t2 Vdd.t698 pfet_03v3
**devattr s=26000,604 d=26000,604
X176 a_8543_23619 SARlogic_0.dffrs_10.nand3_8.Z a_8359_23619 Vss.t9 nfet_03v3
**devattr s=10400,304 d=10400,304
X177 a_10029_19210 SARlogic_0.dffrs_10.nand3_8.C.t4 a_9845_19210 Vss.t189 nfet_03v3
**devattr s=10400,304 d=10400,304
X178 SARlogic_0.dffrs_10.nand3_8.Z SARlogic_0.dffrs_10.nand3_8.C.t5 Vdd.t245 Vdd.t244 pfet_03v3
**devattr s=44000,1176 d=26000,604
X179 a_33257_33628.t3 Vdd.t694 Vdd.t696 Vdd.t695 pfet_03v3
**devattr s=44000,1176 d=26000,604
X180 Vdd.t872 Clk_piso.t1 a_23785_29218.t3 Vdd.t871 pfet_03v3
**devattr s=26000,604 d=26000,604
X181 SARlogic_0.d5.t1 SARlogic_0.dffrs_14.Qb a_n6139_21417 Vss.t157 nfet_03v3
**devattr s=10400,304 d=17600,576
X182 a_44295_31516 Piso_out.t4 Vss.t15 Vss.t14 nfet_03v3
**devattr s=17600,576 d=10400,304
X183 a_n4367_35924 a_n4551_30169.t4 a_n4551_35924 Vss.t648 nfet_03v3
**devattr s=10400,304 d=10400,304
X184 a_n4551_30169.t0 a_n4631_29217.t5 Vdd.t942 Vdd.t941 pfet_03v3
**devattr s=44000,1176 d=26000,604
X185 a_12585_17004 Reset.t18 a_12401_17004 Vss.t359 nfet_03v3
**devattr s=10400,304 d=10400,304
X186 a_8377_29020 inv2_0.out.t6 Vss.t553 Vss.t552 nfet_03v3
**devattr s=17600,576 d=17600,576
X187 SARlogic_0.dffrs_0.nand3_8.Z.t3 SARlogic_0.dffrs_0.d.t5 Vdd.t824 Vdd.t823 pfet_03v3
**devattr s=26000,604 d=44000,1176
X188 a_14393_29310 a_14313_29218.t4 Vss.t675 Vss.t674 nfet_03v3
**devattr s=17600,576 d=10400,304
X189 SARlogic_0.dffrs_8.nand3_8.Z SAR_in.t2 Vdd.t559 Vdd.t558 pfet_03v3
**devattr s=26000,604 d=44000,1176
X190 a_12585_19209 SARlogic_0.dffrs_12.Q.t4 a_12401_19209 Vss.t406 nfet_03v3
**devattr s=10400,304 d=10400,304
X191 a_39727_29264.t0 a_39055_28100 Vss.t302 Vss.t301 nfet_03v3
**devattr s=17600,576 d=17600,576
X192 a_11499_29984 a_10639_28100 a_11311_29264.t2 Vdd.t595 pfet_03v3
**devattr s=52800,1376 d=31200,704
X193 a_n6555_341 a_n6755_249 comparator_no_offsetcal_0.no_offsetLatch_0.Vq Vss.t177 nfet_03v3
**devattr s=20800,504 d=35200,976
X194 Vdd.t147 SARlogic_0.dffrs_5.nand3_8.Z.t4 SARlogic_0.dffrs_5.nand3_1.C.t2 Vdd.t146 pfet_03v3
**devattr s=26000,604 d=26000,604
X195 a_n10151_9634 SARlogic_0.dffrs_13.nand3_8.C.t4 a_n10335_9634 Vss.t634 nfet_03v3
**devattr s=10400,304 d=10400,304
X196 SARlogic_0.d2.t1 SARlogic_0.dffrs_9.Qb Vdd.t89 Vdd.t88 pfet_03v3
**devattr s=26000,604 d=44000,1176
X197 adc_PISO_0.2inmux_1.Bit.t2 adc_PISO_0.dffrs_4.Qb a_35007_33720 Vss.t660 nfet_03v3
**devattr s=10400,304 d=17600,576
X198 adc_PISO_0.2inmux_0.OUT.t1 a_n7633_29263.t4 Vdd.t171 Vdd.t170 pfet_03v3
**devattr s=52800,1376 d=52800,1376
X199 SARlogic_0.d4.t3 SARlogic_0.dffrs_0.Qb.t4 Vdd.t195 Vdd.t194 pfet_03v3
**devattr s=44000,1176 d=26000,604
X200 SARlogic_0.dffrs_0.nand3_8.C.t1 SARlogic_0.dffrs_0.nand3_8.Z.t4 Vdd.t149 Vdd.t148 pfet_03v3
**devattr s=26000,604 d=44000,1176
X201 a_36793_29020 inv2_0.out.t7 Vdd.t768 Vdd.t767 pfet_03v3
**devattr s=52800,1376 d=52800,1376
X202 Vdd.t393 comparator_no_offsetcal_0.no_offsetLatch_0.Vout1.t10 comparator_no_offsetcal_0.no_offsetLatch_0.Vout2.t7 Vdd.t392 pfet_03v3
**devattr s=10400,304 d=10400,304
X203 SARlogic_0.dffrs_14.nand3_1.C SARlogic_0.dffrs_14.nand3_6.C.t5 Vdd.t485 Vdd.t484 pfet_03v3
**devattr s=26000,604 d=44000,1176
X204 SARlogic_0.dffrs_5.nand3_8.Z.t1 SARlogic_0.dffrs_4.Q.t4 Vdd.t137 Vdd.t136 pfet_03v3
**devattr s=26000,604 d=44000,1176
X205 a_n9429_n2007.t3 Vin2.t2 comparator_no_offsetcal_0.no_offsetLatch_0.Vq Vss.t180 nfet_03v3
**devattr s=15600,404 d=15600,404
X206 SARlogic_0.dffrs_0.nand3_6.C.t2 Clk.t5 Vdd.t69 Vdd.t68 pfet_03v3
**devattr s=26000,604 d=44000,1176
X207 a_n4551_30169.t1 adc_PISO_0.2inmux_0.OUT.t2 Vdd.t141 Vdd.t140 pfet_03v3
**devattr s=26000,604 d=44000,1176
X208 SARlogic_0.dffrs_0.Q.t0 Vdd.t691 Vdd.t693 Vdd.t692 pfet_03v3
**devattr s=44000,1176 d=26000,604
X209 adc_PISO_0.dffrs_3.Q.t2 Vdd.t688 Vdd.t690 Vdd.t689 pfet_03v3
**devattr s=44000,1176 d=26000,604
X210 a_18555_28820.t1 SARlogic_0.d2.t6 Vdd.t295 Vdd.t294 pfet_03v3
**devattr s=52800,1376 d=52800,1376
X211 a_18113_21414 SARlogic_0.dffrs_12.nand3_6.C.t5 a_17929_21414 Vss.t661 nfet_03v3
**devattr s=10400,304 d=10400,304
X212 a_23785_31423.t3 Clk_piso.t2 Vdd.t874 Vdd.t873 pfet_03v3
**devattr s=26000,604 d=44000,1176
X213 SARlogic_0.dffrs_13.nand3_8.Z.t1 Vss.t109 a_n11637_7428 Vss.t110 nfet_03v3
**devattr s=10400,304 d=17600,576
X214 comparator_no_offsetcal_0.x4.A comparator_no_offsetcal_0.x2.Vout2 Vdd.t243 Vdd.t242 pfet_03v3
**devattr s=17600,576 d=17600,576
X215 SARlogic_0.dffrs_8.nand3_8.Z SARlogic_0.dffrs_8.nand3_8.C.t5 Vdd.t311 Vdd.t310 pfet_03v3
**devattr s=44000,1176 d=26000,604
X216 comparator_no_offsetcal_0.x4.A comparator_no_offsetcal_0.x3.out Vss.t163 Vss.t162 nfet_03v3
**devattr s=17600,576 d=17600,576
X217 SARlogic_0.dffrs_12.nand3_6.C.t1 Vss.t107 a_16627_21414 Vss.t108 nfet_03v3
**devattr s=10400,304 d=17600,576
X218 a_n3767_9633 SARlogic_0.dffrs_1.nand3_6.C.t4 Vss.t218 Vss.t217 nfet_03v3
**devattr s=17600,576 d=10400,304
X219 Vdd.t742 a_33257_31423.t6 adc_PISO_0.2inmux_1.Bit.t0 Vdd.t741 pfet_03v3
**devattr s=26000,604 d=26000,604
X220 SARlogic_0.dffrs_9.Qb Reset.t19 a_5987_19210 Vss.t360 nfet_03v3
**devattr s=10400,304 d=17600,576
X221 a_23785_33628.t3 a_23785_31423.t5 Vdd.t866 Vdd.t865 pfet_03v3
**devattr s=26000,604 d=44000,1176
X222 Vdd.t461 Reset.t20 SARlogic_0.dffrs_8.nand3_6.C.t0 Vdd.t460 pfet_03v3
**devattr s=26000,604 d=26000,604
X223 SARlogic_0.dffrs_14.Qb SARlogic_0.d5.t4 Vdd.t121 Vdd.t120 pfet_03v3
**devattr s=44000,1176 d=26000,604
X224 a_n2281_19210 SARlogic_0.d4.t5 Vss.t172 Vss.t171 nfet_03v3
**devattr s=17600,576 d=10400,304
X225 a_n3583_14043 SARlogic_0.dffrs_1.nand3_8.Z.t4 a_n3767_14043 Vss.t13 nfet_03v3
**devattr s=10400,304 d=10400,304
X226 a_n7633_29263.t3 a_n8305_28099 a_n7445_29983 Vdd.t303 pfet_03v3
**devattr s=31200,704 d=52800,1376
X227 SARlogic_0.dffrs_2.nand3_8.Z.t0 SARlogic_0.dffrs_2.d.t4 Vdd.t31 Vdd.t30 pfet_03v3
**devattr s=26000,604 d=44000,1176
X228 SARlogic_0.dffrs_12.nand3_1.C SARlogic_0.dffrs_12.nand3_6.C.t6 a_16627_23619 Vss.t662 nfet_03v3
**devattr s=10400,304 d=17600,576
X229 SARlogic_0.dffrs_11.Qb SARlogic_0.d0.t5 Vdd.t261 Vdd.t260 pfet_03v3
**devattr s=44000,1176 d=26000,604
X230 adc_PISO_0.dffrs_4.Qb Vdd.t953 a_35007_31516 Vss.t510 nfet_03v3
**devattr s=10400,304 d=17600,576
X231 SARlogic_0.dffrs_5.Q.t3 Vdd.t685 Vdd.t687 Vdd.t686 pfet_03v3
**devattr s=44000,1176 d=26000,604
X232 Vdd.t463 Reset.t21 SARlogic_0.dffrs_12.nand3_8.Z Vdd.t462 pfet_03v3
**devattr s=26000,604 d=26000,604
X233 a_n389_31159.t3 inv2_0.out.t8 Vdd.t770 Vdd.t769 pfet_03v3
**devattr s=52800,1376 d=52800,1376
X234 a_n7625_21417 Reset.t22 a_n7809_21417 Vss.t361 nfet_03v3
**devattr s=10400,304 d=10400,304
X235 Vdd.t317 SARlogic_0.dffrs_8.nand3_8.Z SARlogic_0.dffrs_8.nand3_1.C Vdd.t316 pfet_03v3
**devattr s=26000,604 d=26000,604
X236 adc_PISO_0.dffrs_0.Qb Vdd.t954 a_n2881_31515 Vss.t509 nfet_03v3
**devattr s=10400,304 d=17600,576
X237 a_1761_21414 SARlogic_0.dffrs_1.Qb.t6 Vss.t376 Vss.t375 nfet_03v3
**devattr s=17600,576 d=10400,304
X238 a_n10567_29019 inv2_0.out.t9 Vss.t555 Vss.t554 nfet_03v3
**devattr s=17600,576 d=17600,576
X239 a_n201_28099 SARlogic_0.d4.t6 a_n389_28819.t1 Vss.t173 nfet_03v3
**devattr s=17600,576 d=10400,304
X240 SARlogic_0.dffrs_12.Q.t1 SARlogic_0.dffrs_5.Qb.t5 Vdd.t429 Vdd.t428 pfet_03v3
**devattr s=44000,1176 d=26000,604
X241 a_n11821_14043 Reset.t23 Vss.t363 Vss.t362 nfet_03v3
**devattr s=17600,576 d=10400,304
X242 a_33521_33720 Vdd.t955 a_33337_33720 Vss.t508 nfet_03v3
**devattr s=10400,304 d=10400,304
X243 Vdd.t71 Clk.t6 SARlogic_0.dffrs_4.nand3_8.C.t2 Vdd.t70 pfet_03v3
**devattr s=26000,604 d=26000,604
X244 SARlogic_0.dffrs_1.nand3_8.Z.t2 SARlogic_0.dffrs_0.Q.t4 Vdd.t944 Vdd.t943 pfet_03v3
**devattr s=26000,604 d=44000,1176
X245 SARlogic_0.dffrs_0.Q.t2 SARlogic_0.dffrs_0.Qb.t5 Vdd.t197 Vdd.t196 pfet_03v3
**devattr s=26000,604 d=44000,1176
X246 adc_PISO_0.dffrs_3.Qb adc_PISO_0.dffrs_3.Q.t5 Vdd.t253 Vdd.t252 pfet_03v3
**devattr s=44000,1176 d=26000,604
X247 a_30255_29264.t3 a_29583_28100 a_30443_29984 Vdd.t301 pfet_03v3
**devattr s=31200,704 d=52800,1376
X248 a_5803_11838 Vdd.t956 Vss.t507 Vss.t506 nfet_03v3
**devattr s=17600,576 d=10400,304
X249 a_4841_33627.t2 a_4841_31422.t5 a_5105_35924 Vss.t275 nfet_03v3
**devattr s=10400,304 d=17600,576
X250 a_1839_29263.t2 a_1167_28099 a_2027_29983 Vdd.t299 pfet_03v3
**devattr s=31200,704 d=52800,1376
X251 a_12401_11838 SARlogic_0.dffrs_5.nand3_1.C.t5 Vss.t387 Vss.t386 nfet_03v3
**devattr s=17600,576 d=10400,304
X252 SARlogic_0.dffrs_3.nand3_6.C.t1 Clk.t7 a_4501_11838 Vss.t51 nfet_03v3
**devattr s=10400,304 d=17600,576
X253 Vdd.t465 Reset.t24 SARlogic_0.dffrs_4.nand3_6.C.t0 Vdd.t464 pfet_03v3
**devattr s=26000,604 d=26000,604
X254 a_33521_35925 a_33337_30170.t6 a_33337_35925 Vss.t590 nfet_03v3
**devattr s=10400,304 d=10400,304
X255 a_42809_30170.t2 adc_PISO_0.2inmux_1.OUT.t2 Vdd.t838 Vdd.t837 pfet_03v3
**devattr s=26000,604 d=44000,1176
X256 inv2_0.out.t0 Load.t0 Vss.t1 Vss.t0 nfet_03v3
**devattr s=17600,576 d=17600,576
X257 Vdd.t684 Vdd.t682 a_14393_30170.t3 Vdd.t683 pfet_03v3
**devattr s=26000,604 d=26000,604
X258 Comp_out.t3 a_n10831_4320 Vss.t572 Vss.t571 nfet_03v3
**devattr s=17000,540 d=9350,280
X259 Vdd.t185 a_33257_29218.t4 adc_PISO_0.dffrs_4.Qb Vdd.t184 pfet_03v3
**devattr s=26000,604 d=26000,604
X260 SARlogic_0.dffrs_11.nand3_8.C.t1 SARlogic_0.dffrs_11.nand3_8.Z Vdd.t175 Vdd.t174 pfet_03v3
**devattr s=26000,604 d=44000,1176
X261 SARlogic_0.dffrs_10.nand3_6.C.t2 SARlogic_0.d0.t6 a_8543_21414 Vss.t202 nfet_03v3
**devattr s=10400,304 d=17600,576
X262 a_9845_21414 SARlogic_0.dffrs_3.Qb.t6 Vss.t308 Vss.t307 nfet_03v3
**devattr s=17600,576 d=10400,304
X263 a_16443_21414 SARlogic_0.dffrs_12.nand3_1.C Vss.t68 Vss.t67 nfet_03v3
**devattr s=17600,576 d=10400,304
X264 a_42729_29218.t2 a_42809_30170.t5 Vdd.t325 Vdd.t324 pfet_03v3
**devattr s=26000,604 d=44000,1176
X265 a_8359_7428 SARlogic_0.dffrs_4.nand3_8.C.t6 Vss.t398 Vss.t397 nfet_03v3
**devattr s=17600,576 d=10400,304
X266 Vdd.t876 Clk_piso.t3 a_14313_29218.t3 Vdd.t875 pfet_03v3
**devattr s=26000,604 d=26000,604
X267 SARlogic_0.dffrs_14.Qb Reset.t25 Vdd.t467 Vdd.t466 pfet_03v3
**devattr s=26000,604 d=44000,1176
X268 inv2_0.out.t1 Load.t1 Vdd.t850 Vdd.t849 pfet_03v3
**devattr s=52800,1376 d=52800,1376
X269 SARlogic_0.dffrs_10.nand3_1.C SARlogic_0.dffrs_10.nand3_6.C.t6 a_8543_23619 Vss.t88 nfet_03v3
**devattr s=10400,304 d=17600,576
X270 a_16443_23619 SARlogic_0.dffrs_5.Qb.t6 Vss.t326 Vss.t325 nfet_03v3
**devattr s=17600,576 d=10400,304
X271 a_17929_19210 SARlogic_0.dffrs_12.Q.t5 Vss.t408 Vss.t407 nfet_03v3